// File: /home/edauser64/edalab2022_fullcust/CDS_VISO/EDATP/ALU_8bit_PEX/spectreText/spectre.scs.pex
// Created: Fri Oct 28 19:02:42 2022
// Program "Calibre xRC"
// Version "v2020.1_17.9"
// Nominal Temperature: 25C
// Circuit Temperature: 25C
// 
simulator lang=spectre
subckt PM_ALU_8BIT\%GND ( 1 4 8 18 22 32 36 46 50 60 64 74 78 88 92 102 106 \
 128 131 146 148 151 154 169 171 174 177 192 194 197 200 215 217 220 223 238 \
 240 243 246 261 263 266 269 284 286 289 292 307 309 311 317 319 321 323 325 \
 327 329 331 335 339 343 347 351 355 359 361 363 365 367 369 371 373 377 381 \
 385 389 393 397 401 403 405 407 409 411 413 415 417 419 425 441 447 463 469 \
 485 491 507 513 529 535 551 557 573 579 844 849 857 862 867 883 2276 2278 \
 2279 2281 2283 2285 2287 2289 2291 2293 2295 2297 2299 2301 2303 2305 2307 \
 2309 2311 )
c0 ( 2314 0 ) capacitor c=0.281818f
c1 ( 2221 0 ) capacitor c=0.548654f
c2 ( 2212 0 ) capacitor c=0.199242f
c3 ( 2203 0 ) capacitor c=0.144573f
c4 ( 2196 0 ) capacitor c=0.136601f
c5 ( 2187 0 ) capacitor c=0.144573f
c6 ( 2180 0 ) capacitor c=0.136601f
c7 ( 2171 0 ) capacitor c=0.144573f
c8 ( 2164 0 ) capacitor c=0.136601f
c9 ( 2155 0 ) capacitor c=0.144573f
c10 ( 2148 0 ) capacitor c=0.136601f
c11 ( 2139 0 ) capacitor c=0.144573f
c12 ( 2132 0 ) capacitor c=0.136601f
c13 ( 2123 0 ) capacitor c=0.144573f
c14 ( 2116 0 ) capacitor c=0.136601f
c15 ( 2107 0 ) capacitor c=0.144573f
c16 ( 2100 0 ) capacitor c=0.136601f
c17 ( 2091 0 ) capacitor c=0.144573f
c18 ( 2086 0 ) capacitor c=0.151716f
c19 ( 2082 0 ) capacitor c=0.137044f
c20 ( 2074 0 ) capacitor c=0.321152f
c21 ( 2042 0 ) capacitor c=3.46311f
c22 ( 2028 0 ) capacitor c=2.07814f
c23 ( 1960 0 ) capacitor c=0.495697f
c24 ( 1921 0 ) capacitor c=0.676253f
c25 ( 1901 0 ) capacitor c=0.539727f
c26 ( 1882 0 ) capacitor c=0.154374f
c27 ( 1814 0 ) capacitor c=0.510716f
c28 ( 1775 0 ) capacitor c=0.676947f
c29 ( 1755 0 ) capacitor c=0.538289f
c30 ( 1736 0 ) capacitor c=0.154383f
c31 ( 1668 0 ) capacitor c=0.513564f
c32 ( 1629 0 ) capacitor c=0.676253f
c33 ( 1609 0 ) capacitor c=0.538921f
c34 ( 1590 0 ) capacitor c=0.154374f
c35 ( 1522 0 ) capacitor c=0.513165f
c36 ( 1483 0 ) capacitor c=0.6766f
c37 ( 1463 0 ) capacitor c=0.539011f
c38 ( 1444 0 ) capacitor c=0.154379f
c39 ( 1376 0 ) capacitor c=0.513065f
c40 ( 1337 0 ) capacitor c=0.676253f
c41 ( 1317 0 ) capacitor c=0.538231f
c42 ( 1298 0 ) capacitor c=0.154374f
c43 ( 1230 0 ) capacitor c=0.513212f
c44 ( 1191 0 ) capacitor c=0.676947f
c45 ( 1171 0 ) capacitor c=0.541017f
c46 ( 1152 0 ) capacitor c=0.154383f
c47 ( 1084 0 ) capacitor c=0.513167f
c48 ( 1045 0 ) capacitor c=0.676253f
c49 ( 1025 0 ) capacitor c=0.541475f
c50 ( 1006 0 ) capacitor c=0.154374f
c51 ( 932 0 ) capacitor c=0.51355f
c52 ( 906 0 ) capacitor c=0.410952f
c53 ( 896 0 ) capacitor c=0.243581f
c54 ( 883 0 ) capacitor c=0.236973f
c55 ( 867 0 ) capacitor c=0.299871f
c56 ( 862 0 ) capacitor c=0.152009f
c57 ( 857 0 ) capacitor c=0.223696f
c58 ( 849 0 ) capacitor c=0.125431f
c59 ( 311 0 ) capacitor c=2.93468f
c60 ( 1 0 ) capacitor c=2.13007f
r61 (  2324 2326 ) resistor r=4.16297
r62 (  2324 2325 ) resistor r=11.5288
r63 (  2319 2321 ) resistor r=11.5787
r64 (  2319 2320 ) resistor r=11.5787
r65 (  2319 2338 ) resistor r=30
r66 (  2245 2324 ) resistor r=30.1515
r67 (  2221 2338 ) resistor r=2.22295
r68 (  2221 2245 ) resistor r=2.53373
r69 (  2221 2234 ) resistor r=1.50102
r70 (  2212 2234 ) resistor r=2.89356
r71 (  2204 2311 ) resistor r=2.75
r72 (  2203 2204 ) resistor r=35.2354
r73 (  2203 2204 ) resistor r=35
r74 (  2197 2309 ) resistor r=2.75
r75 (  2196 2197 ) resistor r=35.2466
r76 (  2196 2197 ) resistor r=35
r77 (  2188 2307 ) resistor r=2.75
r78 (  2187 2188 ) resistor r=35.2354
r79 (  2187 2188 ) resistor r=35
r80 (  2181 2305 ) resistor r=2.75
r81 (  2180 2181 ) resistor r=35.2466
r82 (  2180 2181 ) resistor r=35
r83 (  2172 2303 ) resistor r=2.75
r84 (  2171 2172 ) resistor r=35.2354
r85 (  2171 2172 ) resistor r=35
r86 (  2165 2301 ) resistor r=2.75
r87 (  2164 2165 ) resistor r=35.2466
r88 (  2164 2165 ) resistor r=35
r89 (  2156 2299 ) resistor r=2.75
r90 (  2155 2156 ) resistor r=35.2354
r91 (  2155 2156 ) resistor r=35
r92 (  2149 2297 ) resistor r=2.75
r93 (  2148 2149 ) resistor r=35.2466
r94 (  2148 2149 ) resistor r=35
r95 (  2140 2295 ) resistor r=2.75
r96 (  2139 2140 ) resistor r=35.2354
r97 (  2139 2140 ) resistor r=35
r98 (  2133 2293 ) resistor r=2.75
r99 (  2132 2133 ) resistor r=35.2466
r100 (  2132 2133 ) resistor r=35
r101 (  2124 2291 ) resistor r=2.75
r102 (  2123 2124 ) resistor r=35.2354
r103 (  2123 2124 ) resistor r=35
r104 (  2117 2289 ) resistor r=2.75
r105 (  2116 2117 ) resistor r=35.2466
r106 (  2116 2117 ) resistor r=35
r107 (  2108 2287 ) resistor r=2.75
r108 (  2107 2108 ) resistor r=35.2354
r109 (  2107 2108 ) resistor r=35
r110 (  2101 2285 ) resistor r=2.7775
r111 (  2100 2101 ) resistor r=35.2466
r112 (  2100 2101 ) resistor r=35
r113 (  2092 2283 ) resistor r=2.7775
r114 (  2091 2092 ) resistor r=35.2354
r115 (  2091 2092 ) resistor r=35
r116 (  2087 2281 ) resistor r=2.7775
r117 (  2086 2087 ) resistor r=35.2457
r118 (  2086 2087 ) resistor r=35
r119 (  2083 2278 ) resistor r=2.7225
r120 (  2083 2279 ) resistor r=2.7775
r121 (  2082 2083 ) resistor r=35.2466
r122 (  2082 2083 ) resistor r=35
r123 (  2042 2074 ) resistor r=2.30809
r124 (  2028 2074 ) resistor r=4.27255
r125 (  1960 2042 ) resistor r=0.123344
r126 (  1921 2028 ) resistor r=0.134134
r127 (  1921 2203 ) resistor r=0.393103
r128 (  1921 2196 ) resistor r=0.393103
r129 (  1901 1960 ) resistor r=0.235154
r130 (  1882 1921 ) resistor r=0.555362
r131 (  1814 1901 ) resistor r=0.456852
r132 (  1775 1882 ) resistor r=0.134134
r133 (  1775 2187 ) resistor r=0.393103
r134 (  1775 2180 ) resistor r=0.393103
r135 (  1755 1814 ) resistor r=0.249571
r136 (  1736 1775 ) resistor r=0.560069
r137 (  1668 1755 ) resistor r=0.450445
r138 (  1629 1736 ) resistor r=0.134134
r139 (  1629 2171 ) resistor r=0.393103
r140 (  1629 2164 ) resistor r=0.393103
r141 (  1609 1668 ) resistor r=0.255978
r142 (  1590 1629 ) resistor r=0.555362
r143 (  1522 1609 ) resistor r=0.452047
r144 (  1483 1590 ) resistor r=0.134134
r145 (  1483 2155 ) resistor r=0.393103
r146 (  1483 2148 ) resistor r=0.393103
r147 (  1463 1522 ) resistor r=0.254697
r148 (  1444 1483 ) resistor r=0.557716
r149 (  1376 1463 ) resistor r=0.451726
r150 (  1337 1444 ) resistor r=0.134134
r151 (  1337 2139 ) resistor r=0.393103
r152 (  1337 2132 ) resistor r=0.393103
r153 (  1317 1376 ) resistor r=0.254697
r154 (  1298 1337 ) resistor r=0.555362
r155 (  1230 1317 ) resistor r=0.451726
r156 (  1191 1298 ) resistor r=0.134134
r157 (  1191 2123 ) resistor r=0.393103
r158 (  1191 2116 ) resistor r=0.393103
r159 (  1171 1230 ) resistor r=0.254697
r160 (  1152 1191 ) resistor r=0.560069
r161 (  1084 1171 ) resistor r=0.451726
r162 (  1045 1152 ) resistor r=0.134134
r163 (  1045 2107 ) resistor r=0.393103
r164 (  1045 2100 ) resistor r=0.393103
r165 (  1025 1084 ) resistor r=0.254697
r166 (  1006 1045 ) resistor r=0.555362
r167 (  932 1025 ) resistor r=0.451726
r168 (  906 2212 ) resistor r=2.25025
r169 (  906 1006 ) resistor r=0.134134
r170 (  906 2091 ) resistor r=0.393103
r171 (  906 2086 ) resistor r=0.393103
r172 (  906 2082 ) resistor r=0.393103
r173 (  902 2314 ) resistor r=11.5787
r174 (  901 2234 ) resistor r=2.2573
r175 (  901 902 ) resistor r=30
r176 (  899 2276 ) resistor r=2.7225
r177 (  896 899 ) resistor r=35.1208
r178 (  896 906 ) resistor r=0.373469
r179 (  896 899 ) resistor r=35
r180 (  883 932 ) resistor r=0.254697
r181 (  875 2326 ) resistor r=6.46884
r182 (  874 875 ) resistor r=130
r183 (  873 2325 ) resistor r=15
r184 (  870 874 ) resistor r=6.36951
r185 (  870 871 ) resistor r=38
r186 (  865 873 ) resistor r=6.36951
r187 (  865 867 ) resistor r=258
r188 (  860 871 ) resistor r=6.36951
r189 (  860 862 ) resistor r=206
r190 (  857 2321 ) resistor r=329
r191 (  847 849 ) resistor r=181
r192 (  842 844 ) resistor r=134
r193 (  841 902 ) resistor r=4.11337
r194 (  840 847 ) resistor r=6.36951
r195 (  840 841 ) resistor r=32
r196 (  838 842 ) resistor r=6.36951
r197 (  838 839 ) resistor r=55
r198 (  836 839 ) resistor r=6.36951
r199 (  836 2314 ) resistor r=278
r200 (  578 1901 ) resistor r=35.3771
r201 (  578 579 ) resistor r=5.445
r202 (  573 578 ) resistor r=5.555
r203 (  556 1755 ) resistor r=35.3771
r204 (  556 557 ) resistor r=5.445
r205 (  551 556 ) resistor r=5.555
r206 (  534 1609 ) resistor r=35.3771
r207 (  534 535 ) resistor r=5.445
r208 (  529 534 ) resistor r=5.555
r209 (  512 1463 ) resistor r=35.3771
r210 (  512 513 ) resistor r=5.445
r211 (  507 512 ) resistor r=5.555
r212 (  490 1317 ) resistor r=35.3771
r213 (  490 491 ) resistor r=5.445
r214 (  485 490 ) resistor r=5.555
r215 (  468 1171 ) resistor r=35.3771
r216 (  468 469 ) resistor r=5.445
r217 (  463 468 ) resistor r=5.555
r218 (  446 1025 ) resistor r=35.3771
r219 (  446 447 ) resistor r=5.445
r220 (  441 446 ) resistor r=5.555
r221 (  424 883 ) resistor r=35.3771
r222 (  424 425 ) resistor r=5.445
r223 (  419 424 ) resistor r=5.555
r224 (  403 899 ) resistor r=2.7775
r225 (  400 1921 ) resistor r=17.872
r226 (  400 401 ) resistor r=2.7225
r227 (  400 417 ) resistor r=2.7775
r228 (  396 1775 ) resistor r=17.872
r229 (  396 397 ) resistor r=2.7225
r230 (  396 415 ) resistor r=2.7775
r231 (  392 1629 ) resistor r=17.872
r232 (  392 393 ) resistor r=2.7225
r233 (  392 413 ) resistor r=2.7775
r234 (  388 1483 ) resistor r=17.872
r235 (  388 389 ) resistor r=2.7225
r236 (  388 411 ) resistor r=2.7775
r237 (  384 1337 ) resistor r=17.872
r238 (  384 385 ) resistor r=2.7225
r239 (  384 409 ) resistor r=2.7775
r240 (  380 1191 ) resistor r=17.872
r241 (  380 381 ) resistor r=2.7225
r242 (  380 407 ) resistor r=2.7775
r243 (  376 1045 ) resistor r=17.872
r244 (  376 377 ) resistor r=2.7225
r245 (  376 405 ) resistor r=2.7775
r246 (  373 2197 ) resistor r=2.75
r247 (  371 2181 ) resistor r=2.75
r248 (  369 2165 ) resistor r=2.75
r249 (  367 2149 ) resistor r=2.75
r250 (  365 2133 ) resistor r=2.75
r251 (  363 2117 ) resistor r=2.75
r252 (  361 2101 ) resistor r=2.7225
r253 (  358 1921 ) resistor r=17.8914
r254 (  358 359 ) resistor r=2.7225
r255 (  354 1775 ) resistor r=17.8914
r256 (  354 355 ) resistor r=2.7225
r257 (  350 1629 ) resistor r=17.8914
r258 (  350 351 ) resistor r=2.7225
r259 (  346 1483 ) resistor r=17.8914
r260 (  346 347 ) resistor r=2.7225
r261 (  342 1337 ) resistor r=17.8914
r262 (  342 343 ) resistor r=2.7225
r263 (  338 1191 ) resistor r=17.8914
r264 (  338 339 ) resistor r=2.7225
r265 (  334 1045 ) resistor r=17.8914
r266 (  334 335 ) resistor r=2.7225
r267 (  331 358 ) resistor r=2.7775
r268 (  329 354 ) resistor r=2.7775
r269 (  327 350 ) resistor r=2.7775
r270 (  325 346 ) resistor r=2.7775
r271 (  323 342 ) resistor r=2.7775
r272 (  321 338 ) resistor r=2.7775
r273 (  319 334 ) resistor r=2.7775
r274 (  317 2087 ) resistor r=2.7225
r275 (  311 2320 ) resistor r=277
r276 (  306 1960 ) resistor r=35.5843
r277 (  306 309 ) resistor r=5.445
r278 (  304 1960 ) resistor r=35.5827
r279 (  304 307 ) resistor r=5.555
r280 (  292 306 ) resistor r=5.555
r281 (  289 304 ) resistor r=5.445
r282 (  283 1814 ) resistor r=35.5843
r283 (  283 286 ) resistor r=5.445
r284 (  281 1814 ) resistor r=35.5827
r285 (  281 284 ) resistor r=5.555
r286 (  269 283 ) resistor r=5.555
r287 (  266 281 ) resistor r=5.445
r288 (  260 1668 ) resistor r=35.5843
r289 (  260 263 ) resistor r=5.445
r290 (  258 1668 ) resistor r=35.5827
r291 (  258 261 ) resistor r=5.555
r292 (  246 260 ) resistor r=5.555
r293 (  243 258 ) resistor r=5.445
r294 (  237 1522 ) resistor r=35.5843
r295 (  237 240 ) resistor r=5.445
r296 (  235 1522 ) resistor r=35.5827
r297 (  235 238 ) resistor r=5.555
r298 (  223 237 ) resistor r=5.555
r299 (  220 235 ) resistor r=5.445
r300 (  214 1376 ) resistor r=35.5843
r301 (  214 217 ) resistor r=5.445
r302 (  212 1376 ) resistor r=35.5827
r303 (  212 215 ) resistor r=5.555
r304 (  200 214 ) resistor r=5.555
r305 (  197 212 ) resistor r=5.445
r306 (  191 1230 ) resistor r=35.5843
r307 (  191 194 ) resistor r=5.445
r308 (  189 1230 ) resistor r=35.5827
r309 (  189 192 ) resistor r=5.555
r310 (  177 191 ) resistor r=5.555
r311 (  174 189 ) resistor r=5.445
r312 (  168 1084 ) resistor r=35.5843
r313 (  168 171 ) resistor r=5.445
r314 (  166 1084 ) resistor r=35.5827
r315 (  166 169 ) resistor r=5.555
r316 (  154 168 ) resistor r=5.555
r317 (  151 166 ) resistor r=5.445
r318 (  145 932 ) resistor r=35.5843
r319 (  145 148 ) resistor r=5.445
r320 (  143 932 ) resistor r=35.5827
r321 (  143 146 ) resistor r=5.555
r322 (  131 145 ) resistor r=5.555
r323 (  128 143 ) resistor r=5.445
r324 (  106 2204 ) resistor r=2.75
r325 (  101 2028 ) resistor r=17.8914
r326 (  101 102 ) resistor r=2.7225
r327 (  92 2188 ) resistor r=2.75
r328 (  87 1882 ) resistor r=17.8914
r329 (  87 88 ) resistor r=2.7225
r330 (  78 2172 ) resistor r=2.75
r331 (  73 1736 ) resistor r=17.8914
r332 (  73 74 ) resistor r=2.7225
r333 (  64 2156 ) resistor r=2.75
r334 (  59 1590 ) resistor r=17.8914
r335 (  59 60 ) resistor r=2.7225
r336 (  50 2140 ) resistor r=2.75
r337 (  45 1444 ) resistor r=17.8914
r338 (  45 46 ) resistor r=2.7225
r339 (  36 2124 ) resistor r=2.75
r340 (  31 1298 ) resistor r=17.8914
r341 (  31 32 ) resistor r=2.7225
r342 (  22 2108 ) resistor r=2.75
r343 (  17 1152 ) resistor r=17.8914
r344 (  17 18 ) resistor r=2.7225
r345 (  8 2092 ) resistor r=2.7225
r346 (  3 1006 ) resistor r=17.8914
r347 (  3 4 ) resistor r=2.7225
r348 (  1 906 ) resistor r=783.875
r349 (  1 2042 ) resistor r=783.912
r350 (  1 883 ) resistor r=783.875
r351 (  1 2028 ) resistor r=783.912
ends PM_ALU_8BIT\%GND

subckt PM_ALU_8BIT\%A\<0\> ( 1 10 30 43 51 56 67 72 77 82 229 )
c0 ( 229 0 ) capacitor c=0.149466f
c1 ( 220 0 ) capacitor c=0.164311f
c2 ( 208 0 ) capacitor c=0.198506f
c3 ( 177 0 ) capacitor c=0.200706f
c4 ( 148 0 ) capacitor c=0.197536f
c5 ( 147 0 ) capacitor c=0.484861f
c6 ( 141 0 ) capacitor c=0.172074f
c7 ( 118 0 ) capacitor c=0.15866f
c8 ( 117 0 ) capacitor c=0.298914f
c9 ( 95 0 ) capacitor c=0.318738f
c10 ( 82 0 ) capacitor c=0.209648f
c11 ( 72 0 ) capacitor c=0.299261f
c12 ( 67 0 ) capacitor c=0.161696f
c13 ( 56 0 ) capacitor c=0.269527f
c14 ( 51 0 ) capacitor c=0.116582f
c15 ( 43 0 ) capacitor c=0.163316f
c16 ( 23 0 ) capacitor c=0.25103f
c17 ( 10 0 ) capacitor c=0.110278f
c18 ( 1 0 ) capacitor c=0.288496f
r19 (  211 215 ) resistor r=8.18483
r20 (  205 229 ) resistor r=30.2547
r21 (  205 206 ) resistor r=11.3877
r22 (  201 205 ) resistor r=4.65689
r23 (  177 215 ) resistor r=30.12
r24 (  148 177 ) resistor r=3.88636
r25 (  147 148 ) resistor r=3.6428
r26 (  147 229 ) resistor r=2.74112
r27 (  139 221 ) resistor r=4.11337
r28 (  139 220 ) resistor r=11.5787
r29 (  139 141 ) resistor r=30.1229
r30 (  117 118 ) resistor r=1.77711
r31 (  117 141 ) resistor r=1.26659
r32 (  114 118 ) resistor r=30.6571
r33 (  102 209 ) resistor r=3.88074
r34 (  102 208 ) resistor r=11.4582
r35 (  101 102 ) resistor r=30
r36 (  95 229 ) resistor r=1.8391
r37 (  95 118 ) resistor r=0.335977
r38 (  95 101 ) resistor r=1.37916
r39 (  89 220 ) resistor r=278
r40 (  87 221 ) resistor r=6.63832
r41 (  87 88 ) resistor r=32
r42 (  85 89 ) resistor r=6.36951
r43 (  85 86 ) resistor r=55
r44 (  80 88 ) resistor r=6.36951
r45 (  80 82 ) resistor r=181
r46 (  75 86 ) resistor r=6.36951
r47 (  75 77 ) resistor r=134
r48 (  70 72 ) resistor r=296
r49 (  65 67 ) resistor r=243
r50 (  63 70 ) resistor r=6.36951
r51 (  63 64 ) resistor r=29
r52 (  62 114 ) resistor r=12.8571
r53 (  61 65 ) resistor r=6.36951
r54 (  61 62 ) resistor r=29
r55 (  60 64 ) resistor r=6.36951
r56 (  59 114 ) resistor r=10.7622
r57 (  59 60 ) resistor r=36
r58 (  54 56 ) resistor r=220
r59 (  49 51 ) resistor r=170
r60 (  48 209 ) resistor r=6.46884
r61 (  47 54 ) resistor r=6.36951
r62 (  47 48 ) resistor r=23
r63 (  45 49 ) resistor r=6.36951
r64 (  45 46 ) resistor r=45
r65 (  41 211 ) resistor r=6.46884
r66 (  41 43 ) resistor r=147
r67 (  38 211 ) resistor r=6.46884
r68 (  36 46 ) resistor r=6.36951
r69 (  36 208 ) resistor r=204
r70 (  28 30 ) resistor r=97
r71 (  26 33 ) resistor r=6.36951
r72 (  26 206 ) resistor r=40
r73 (  24 28 ) resistor r=6.36951
r74 (  24 25 ) resistor r=64
r75 (  23 201 ) resistor r=6.46884
r76 (  22 25 ) resistor r=6.36951
r77 (  22 23 ) resistor r=357
r78 (  10 38 ) resistor r=156
r79 (  1 33 ) resistor r=140
ends PM_ALU_8BIT\%A\<0\>

subckt PM_ALU_8BIT\%B\<0\> ( 1 8 21 26 66 75 80 88 97 102 107 112 281 )
c0 ( 274 0 ) capacitor c=0.279929f
c1 ( 271 0 ) capacitor c=0.114896f
c2 ( 214 0 ) capacitor c=0.368451f
c3 ( 202 0 ) capacitor c=0.41788f
c4 ( 171 0 ) capacitor c=0.307355f
c5 ( 154 0 ) capacitor c=0.231915f
c6 ( 148 0 ) capacitor c=0.302424f
c7 ( 112 0 ) capacitor c=0.211266f
c8 ( 107 0 ) capacitor c=0.128683f
c9 ( 102 0 ) capacitor c=0.220933f
c10 ( 97 0 ) capacitor c=0.195852f
c11 ( 80 0 ) capacitor c=0.468886f
c12 ( 75 0 ) capacitor c=0.156672f
c13 ( 48 0 ) capacitor c=0.686617f
c14 ( 1 0 ) capacitor c=0.263325f
r15 (  266 274 ) resistor r=30
r16 (  257 258 ) resistor r=12.1291
r17 (  257 284 ) resistor r=30
r18 (  251 281 ) resistor r=30
r19 (  224 284 ) resistor r=2
r20 (  214 274 ) resistor r=2.73533
r21 (  214 224 ) resistor r=1.20891
r22 (  202 224 ) resistor r=3.36389
r23 (  202 281 ) resistor r=2.13934
r24 (  196 272 ) resistor r=3.88074
r25 (  196 271 ) resistor r=11.4582
r26 (  171 196 ) resistor r=30.6484
r27 (  168 269 ) resistor r=11.4582
r28 (  168 268 ) resistor r=11.4582
r29 (  166 168 ) resistor r=30
r30 (  154 171 ) resistor r=1.23716
r31 (  154 166 ) resistor r=1.01326
r32 (  150 260 ) resistor r=11.5787
r33 (  148 281 ) resistor r=0.861093
r34 (  148 154 ) resistor r=0.489317
r35 (  148 150 ) resistor r=30.75
r36 (  119 271 ) resistor r=204
r37 (  117 272 ) resistor r=6.46884
r38 (  117 118 ) resistor r=23
r39 (  115 119 ) resistor r=6.36951
r40 (  115 116 ) resistor r=45
r41 (  110 118 ) resistor r=6.36951
r42 (  110 112 ) resistor r=220
r43 (  105 116 ) resistor r=6.36951
r44 (  105 107 ) resistor r=170
r45 (  102 269 ) resistor r=329
r46 (  97 268 ) resistor r=277
r47 (  93 266 ) resistor r=10.8476
r48 (  93 94 ) resistor r=173
r49 (  91 94 ) resistor r=6.36951
r50 (  91 92 ) resistor r=49
r51 (  89 266 ) resistor r=6.54098
r52 (  89 90 ) resistor r=49
r53 (  86 92 ) resistor r=6.36951
r54 (  86 88 ) resistor r=55.1
r55 (  83 90 ) resistor r=6.36951
r56 (  78 80 ) resistor r=258
r57 (  73 75 ) resistor r=206
r58 (  72 150 ) resistor r=4.11337
r59 (  71 78 ) resistor r=6.36951
r60 (  71 72 ) resistor r=15
r61 (  69 73 ) resistor r=6.36951
r62 (  69 70 ) resistor r=38
r63 (  67 70 ) resistor r=6.36951
r64 (  67 260 ) resistor r=129
r65 (  64 66 ) resistor r=55.1
r66 (  56 257 ) resistor r=5.86543
r67 (  55 61 ) resistor r=6.36951
r68 (  55 56 ) resistor r=17
r69 (  54 251 ) resistor r=8.14286
r70 (  53 59 ) resistor r=6.36951
r71 (  53 54 ) resistor r=49
r72 (  51 57 ) resistor r=6.36951
r73 (  51 52 ) resistor r=49
r74 (  49 64 ) resistor r=6.36951
r75 (  49 50 ) resistor r=50
r76 (  48 251 ) resistor r=10.7494
r77 (  47 52 ) resistor r=6.36951
r78 (  47 48 ) resistor r=426
r79 (  46 50 ) resistor r=6.36951
r80 (  46 258 ) resistor r=173
r81 (  26 83 ) resistor r=50
r82 (  21 61 ) resistor r=49
r83 (  8 57 ) resistor r=55.1
r84 (  1 59 ) resistor r=92.15
ends PM_ALU_8BIT\%B\<0\>

subckt PM_ALU_8BIT\%XI4\/XI18\/NET248 ( 1 8 21 26 118 119 123 124 )
c0 ( 144 0 ) capacitor c=0.113794f
c1 ( 93 0 ) capacitor c=0.401232f
c2 ( 78 0 ) capacitor c=0.411924f
c3 ( 76 0 ) capacitor c=0.226991f
c4 ( 62 0 ) capacitor c=0.258178f
c5 ( 43 0 ) capacitor c=0.220211f
c6 ( 26 0 ) capacitor c=0.199515f
c7 ( 21 0 ) capacitor c=0.171584f
c8 ( 8 0 ) capacitor c=0.308138f
c9 ( 1 0 ) capacitor c=0.187634f
r10 (  134 136 ) resistor r=11.5787
r11 (  134 135 ) resistor r=11.5787
r12 (  134 144 ) resistor r=30
r13 (  124 127 ) resistor r=2.7775
r14 (  123 127 ) resistor r=2.7225
r15 (  121 122 ) resistor r=35
r16 (  119 122 ) resistor r=1.13625
r17 (  118 122 ) resistor r=1.11375
r18 (  93 127 ) resistor r=17.8356
r19 (  78 144 ) resistor r=3.13919
r20 (  76 78 ) resistor r=0.923656
r21 (  65 78 ) resistor r=1.30476
r22 (  62 76 ) resistor r=2.4696
r23 (  62 93 ) resistor r=2.1915
r24 (  58 121 ) resistor r=2.51415
r25 (  58 65 ) resistor r=1.17352
r26 (  51 131 ) resistor r=30
r27 (  51 76 ) resistor r=2
r28 (  43 122 ) resistor r=23.9743
r29 (  43 121 ) resistor r=0.323636
r30 (  43 122 ) resistor r=23.3333
r31 (  33 131 ) resistor r=10.7888
r32 (  33 34 ) resistor r=36
r33 (  31 34 ) resistor r=6.36951
r34 (  31 32 ) resistor r=29
r35 (  29 131 ) resistor r=13.1538
r36 (  29 30 ) resistor r=29
r37 (  24 32 ) resistor r=6.36951
r38 (  24 26 ) resistor r=296
r39 (  19 30 ) resistor r=6.36951
r40 (  19 21 ) resistor r=243
r41 (  8 135 ) resistor r=496
r42 (  1 136 ) resistor r=110
ends PM_ALU_8BIT\%XI4\/XI18\/NET248

subckt PM_ALU_8BIT\%CTR\<1\> ( 33 40 47 54 61 68 75 82 122 132 142 152 162 172 \
 182 192 419 )
c0 ( 367 0 ) capacitor c=1.26106f
c1 ( 352 0 ) capacitor c=0.105875f
c2 ( 323 0 ) capacitor c=0.532819f
c3 ( 315 0 ) capacitor c=0.513194f
c4 ( 307 0 ) capacitor c=0.506529f
c5 ( 299 0 ) capacitor c=0.494308f
c6 ( 291 0 ) capacitor c=0.507099f
c7 ( 283 0 ) capacitor c=0.492001f
c8 ( 277 0 ) capacitor c=0.53303f
c9 ( 33 0 ) capacitor c=2.20682f
r10 (  425 457 ) resistor r=2
r11 (  414 416 ) resistor r=8.11427
r12 (  413 414 ) resistor r=30
r13 (  408 410 ) resistor r=8.11427
r14 (  407 462 ) resistor r=2.17944
r15 (  407 408 ) resistor r=30
r16 (  402 404 ) resistor r=8.11427
r17 (  401 461 ) resistor r=2.19217
r18 (  401 402 ) resistor r=30
r19 (  396 398 ) resistor r=8.11427
r20 (  395 396 ) resistor r=30
r21 (  390 392 ) resistor r=8.11427
r22 (  389 459 ) resistor r=2.14636
r23 (  389 390 ) resistor r=30
r24 (  384 386 ) resistor r=8.11427
r25 (  378 380 ) resistor r=8.04371
r26 (  378 425 ) resistor r=30
r27 (  372 374 ) resistor r=8.04371
r28 (  372 419 ) resistor r=30
r29 (  367 413 ) resistor r=2.17308
r30 (  352 395 ) resistor r=2.21635
r31 (  333 419 ) resistor r=2.16968
r32 (  323 367 ) resistor r=2.31395
r33 (  315 462 ) resistor r=2.31395
r34 (  315 323 ) resistor r=4.76836
r35 (  307 315 ) resistor r=4.85252
r36 (  307 461 ) resistor r=2.3185
r37 (  299 307 ) resistor r=4.84757
r38 (  299 352 ) resistor r=2.3185
r39 (  291 299 ) resistor r=4.79461
r40 (  291 459 ) resistor r=2.31395
r41 (  283 291 ) resistor r=4.82707
r42 (  283 458 ) resistor r=2.3094
r43 (  279 333 ) resistor r=2.3094
r44 (  277 283 ) resistor r=4.78164
r45 (  277 457 ) resistor r=2.31395
r46 (  277 279 ) resistor r=4.91858
r47 (  264 458 ) resistor r=2
r48 (  264 384 ) resistor r=30
r49 (  253 255 ) resistor r=16
r50 (  249 251 ) resistor r=16
r51 (  245 247 ) resistor r=16
r52 (  241 243 ) resistor r=16
r53 (  237 239 ) resistor r=16
r54 (  233 235 ) resistor r=16
r55 (  229 231 ) resistor r=16
r56 (  225 227 ) resistor r=16
r57 (  221 223 ) resistor r=16
r58 (  217 219 ) resistor r=16
r59 (  213 215 ) resistor r=16
r60 (  209 211 ) resistor r=16
r61 (  205 207 ) resistor r=16
r62 (  201 203 ) resistor r=16
r63 (  197 199 ) resistor r=16
r64 (  193 195 ) resistor r=16
r65 (  192 255 ) resistor r=55.7695
r66 (  185 253 ) resistor r=24.6695
r67 (  185 416 ) resistor r=6.46884
r68 (  184 249 ) resistor r=146.67
r69 (  184 416 ) resistor r=6.46884
r70 (  182 247 ) resistor r=55.7695
r71 (  175 245 ) resistor r=24.6695
r72 (  175 410 ) resistor r=6.46884
r73 (  174 241 ) resistor r=146.67
r74 (  174 410 ) resistor r=6.46884
r75 (  172 239 ) resistor r=55.7695
r76 (  165 237 ) resistor r=24.6695
r77 (  165 404 ) resistor r=6.46884
r78 (  164 233 ) resistor r=146.67
r79 (  164 404 ) resistor r=6.46884
r80 (  162 231 ) resistor r=55.7695
r81 (  155 229 ) resistor r=24.6695
r82 (  155 398 ) resistor r=6.46884
r83 (  154 225 ) resistor r=146.67
r84 (  154 398 ) resistor r=6.46884
r85 (  152 223 ) resistor r=55.7695
r86 (  145 221 ) resistor r=24.6695
r87 (  145 392 ) resistor r=6.46884
r88 (  144 217 ) resistor r=146.67
r89 (  144 392 ) resistor r=6.46884
r90 (  142 215 ) resistor r=55.7695
r91 (  135 213 ) resistor r=24.6695
r92 (  135 386 ) resistor r=6.46884
r93 (  134 209 ) resistor r=146.67
r94 (  134 386 ) resistor r=6.46884
r95 (  132 207 ) resistor r=55.7695
r96 (  125 205 ) resistor r=24.6695
r97 (  125 380 ) resistor r=6.46884
r98 (  124 201 ) resistor r=146.67
r99 (  124 380 ) resistor r=6.46884
r100 (  122 199 ) resistor r=55.7695
r101 (  115 197 ) resistor r=24.6695
r102 (  115 374 ) resistor r=6.46884
r103 (  114 193 ) resistor r=146.67
r104 (  114 374 ) resistor r=6.46884
r105 (  82 251 ) resistor r=51.6695
r106 (  75 243 ) resistor r=51.6695
r107 (  68 235 ) resistor r=51.6695
r108 (  61 227 ) resistor r=51.6695
r109 (  54 219 ) resistor r=51.6695
r110 (  47 211 ) resistor r=51.6695
r111 (  40 203 ) resistor r=51.6695
r112 (  33 195 ) resistor r=51.6695
ends PM_ALU_8BIT\%CTR\<1\>

subckt PM_ALU_8BIT\%CTR\<0\> ( 33 40 47 54 61 68 75 82 118 132 146 160 174 188 \
 202 216 401 )
c0 ( 316 0 ) capacitor c=1.76883f
c1 ( 306 0 ) capacitor c=0.481168f
c2 ( 296 0 ) capacitor c=0.485947f
c3 ( 286 0 ) capacitor c=0.487239f
c4 ( 276 0 ) capacitor c=0.50866f
c5 ( 266 0 ) capacitor c=0.488493f
c6 ( 259 0 ) capacitor c=0.499737f
c7 ( 33 0 ) capacitor c=2.81292f
r8 (  449 477 ) resistor r=2
r9 (  442 444 ) resistor r=2
r10 (  435 473 ) resistor r=2
r11 (  428 470 ) resistor r=2
r12 (  421 469 ) resistor r=2
r13 (  414 462 ) resistor r=2
r14 (  407 458 ) resistor r=2
r15 (  401 454 ) resistor r=2
r16 (  396 449 ) resistor r=30
r17 (  392 442 ) resistor r=30
r18 (  388 435 ) resistor r=30
r19 (  384 428 ) resistor r=30
r20 (  380 421 ) resistor r=30
r21 (  376 414 ) resistor r=30
r22 (  372 407 ) resistor r=30
r23 (  368 401 ) resistor r=30
r24 (  316 477 ) resistor r=2.35945
r25 (  316 321 ) resistor r=1.82967
r26 (  306 321 ) resistor r=2.95965
r27 (  306 444 ) resistor r=2.35035
r28 (  306 311 ) resistor r=1.66266
r29 (  296 311 ) resistor r=3.07286
r30 (  296 473 ) resistor r=2.3549
r31 (  296 301 ) resistor r=1.81733
r32 (  286 301 ) resistor r=2.95403
r33 (  286 470 ) resistor r=2.35035
r34 (  286 291 ) resistor r=1.97191
r35 (  276 469 ) resistor r=2.3458
r36 (  276 291 ) resistor r=2.79933
r37 (  276 281 ) resistor r=1.88887
r38 (  266 281 ) resistor r=2.90398
r39 (  266 462 ) resistor r=2.35035
r40 (  266 271 ) resistor r=2.0418
r41 (  259 271 ) resistor r=2.71341
r42 (  259 458 ) resistor r=2.364
r43 (  257 259 ) resistor r=4.78314
r44 (  257 454 ) resistor r=2.36855
r45 (  253 255 ) resistor r=13
r46 (  249 251 ) resistor r=13
r47 (  245 247 ) resistor r=13
r48 (  241 243 ) resistor r=13
r49 (  237 239 ) resistor r=13
r50 (  233 235 ) resistor r=13
r51 (  229 231 ) resistor r=13
r52 (  225 227 ) resistor r=13
r53 (  223 396 ) resistor r=10.7657
r54 (  223 224 ) resistor r=75
r55 (  221 224 ) resistor r=6.36951
r56 (  221 222 ) resistor r=16
r57 (  219 255 ) resistor r=31.6695
r58 (  219 222 ) resistor r=6.36951
r59 (  217 396 ) resistor r=9.66667
r60 (  217 218 ) resistor r=29
r61 (  216 253 ) resistor r=55.7695
r62 (  211 218 ) resistor r=6.36951
r63 (  209 392 ) resistor r=10.7657
r64 (  209 210 ) resistor r=75
r65 (  207 210 ) resistor r=6.36951
r66 (  207 208 ) resistor r=16
r67 (  205 251 ) resistor r=31.6695
r68 (  205 208 ) resistor r=6.36951
r69 (  203 392 ) resistor r=9.66667
r70 (  203 204 ) resistor r=29
r71 (  202 249 ) resistor r=55.7695
r72 (  197 204 ) resistor r=6.36951
r73 (  195 388 ) resistor r=10.7657
r74 (  195 196 ) resistor r=75
r75 (  193 196 ) resistor r=6.36951
r76 (  193 194 ) resistor r=16
r77 (  191 247 ) resistor r=31.6695
r78 (  191 194 ) resistor r=6.36951
r79 (  189 388 ) resistor r=9.66667
r80 (  189 190 ) resistor r=29
r81 (  188 245 ) resistor r=55.7695
r82 (  183 190 ) resistor r=6.36951
r83 (  181 384 ) resistor r=10.7657
r84 (  181 182 ) resistor r=75
r85 (  179 182 ) resistor r=6.36951
r86 (  179 180 ) resistor r=16
r87 (  177 243 ) resistor r=31.6695
r88 (  177 180 ) resistor r=6.36951
r89 (  175 384 ) resistor r=9.66667
r90 (  175 176 ) resistor r=29
r91 (  174 241 ) resistor r=55.7695
r92 (  169 176 ) resistor r=6.36951
r93 (  167 380 ) resistor r=10.7657
r94 (  167 168 ) resistor r=75
r95 (  165 168 ) resistor r=6.36951
r96 (  165 166 ) resistor r=16
r97 (  163 239 ) resistor r=31.6695
r98 (  163 166 ) resistor r=6.36951
r99 (  161 380 ) resistor r=9.66667
r100 (  161 162 ) resistor r=29
r101 (  160 237 ) resistor r=55.7695
r102 (  155 162 ) resistor r=6.36951
r103 (  153 376 ) resistor r=10.7657
r104 (  153 154 ) resistor r=75
r105 (  151 154 ) resistor r=6.36951
r106 (  151 152 ) resistor r=16
r107 (  149 235 ) resistor r=31.6695
r108 (  149 152 ) resistor r=6.36951
r109 (  147 376 ) resistor r=9.66667
r110 (  147 148 ) resistor r=29
r111 (  146 233 ) resistor r=55.7695
r112 (  141 148 ) resistor r=6.36951
r113 (  139 372 ) resistor r=10.7657
r114 (  139 140 ) resistor r=75
r115 (  137 140 ) resistor r=6.36951
r116 (  137 138 ) resistor r=16
r117 (  135 231 ) resistor r=31.6695
r118 (  135 138 ) resistor r=6.36951
r119 (  133 372 ) resistor r=9.66667
r120 (  133 134 ) resistor r=29
r121 (  132 229 ) resistor r=55.7695
r122 (  127 134 ) resistor r=6.36951
r123 (  125 368 ) resistor r=10.7657
r124 (  125 126 ) resistor r=75
r125 (  123 126 ) resistor r=6.36951
r126 (  123 124 ) resistor r=16
r127 (  121 227 ) resistor r=31.6695
r128 (  121 124 ) resistor r=6.36951
r129 (  119 368 ) resistor r=9.66667
r130 (  119 120 ) resistor r=29
r131 (  118 225 ) resistor r=55.7695
r132 (  113 120 ) resistor r=6.36951
r133 (  82 211 ) resistor r=97
r134 (  75 197 ) resistor r=97
r135 (  68 183 ) resistor r=97
r136 (  61 169 ) resistor r=97
r137 (  54 155 ) resistor r=97
r138 (  47 141 ) resistor r=97
r139 (  40 127 ) resistor r=97
r140 (  33 113 ) resistor r=97
ends PM_ALU_8BIT\%CTR\<0\>
