// File: /home/edauser64/edalab2022_fullcust/CDS_VISO/EDATP/ALU_8bit_PEX/spectreText/spectre.scs
// Created: Fri Oct 28 19:02:42 2022
// Program "Calibre xRC"
// Version "v2020.1_17.9"
// 
simulator lang=spectre
include "/home/edauser64/edalab2022_fullcust/CDS_VISO/EDATP/ALU_8bit_PEX/spectreText/spectre.scs.pex"
subckt ALU_8bit_PEX (  GND A\<0\> B\<0\> CTR\<1\> CTR\<0\> SEL B\<1\> A\<1\> \
 B\<2\> A\<2\> B\<3\> A\<3\> B\<4\> A\<4\> B\<5\> A\<5\> B\<6\> A\<6\> B\<7\> \
 A\<7\> VDD O\<0\> O\<1\> O\<2\> O\<3\> O\<4\> O\<5\> O\<6\> O\<7\> )
// 
// O<7>	O<7>
// O<6>	O<6>
// O<5>	O<5>
// O<4>	O<4>
// O<3>	O<3>
// O<2>	O<2>
// O<1>	O<1>
// O<0>	O<0>
// VDD	VDD
// A<7>	A<7>
// B<7>	B<7>
// A<6>	A<6>
// B<6>	B<6>
// A<5>	A<5>
// B<5>	B<5>
// A<4>	A<4>
// B<4>	B<4>
// A<3>	A<3>
// B<3>	B<3>
// A<2>	A<2>
// B<2>	B<2>
// A<1>	A<1>
// B<1>	B<1>
// SEL	SEL
// CTR<0>	CTR<0>
// CTR<1>	CTR<1>
// B<0>	B<0>
// A<0>	A<0>
// GND	GND
mXI4\/XI18\/MNM0 ( N_XI4\/XI18\/NET248_XI4\/XI18\/MNM0_d \
 N_GND_XI4\/XI18\/MNM0_g N_XI4\/XI18\/NET246_XI4\/XI18\/MNM0_s \
 N_GND_XI4\/XI18\/MNM6_b ) N_12_LLRVT l=6e-08 w=4e-07 ad=4e-14 as=4e-14 \
 pd=6e-07 ps=6e-07 nrd=0 nrs=0 sa=6.8e-07 sb=2.76e-06 sca=0.602605 \
 scb=2.67635e-06 scc=7.14388e-12
mXI4\/XI18\/MNM7 ( N_XI4\/XI18\/NET252_XI4\/XI18\/MNM7_d \
 N_A\<0\>_XI4\/XI18\/MNM7_g N_GND_XI4\/XI18\/MNM7_s N_GND_XI4\/XI18\/MNM6_b ) \
 N_12_LLRVT l=6e-08 w=4e-07 ad=4e-14 as=4e-14 pd=6e-07 ps=6e-07 nrd=0 nrs=0 \
 sa=1.46e-06 sb=1.98e-06 sca=0.602605 scb=2.67635e-06 scc=7.14388e-12
mXI4\/XI18\/MNM8 ( N_XI4\/XI18\/NET252_XI4\/XI18\/MNM8_d \
 N_B\<0\>_XI4\/XI18\/MNM8_g N_GND_XI4\/XI18\/MNM8_s N_GND_XI4\/XI18\/MNM6_b ) \
 N_12_LLRVT l=6e-08 w=4e-07 ad=4e-14 as=4e-14 pd=6e-07 ps=6e-07 nrd=0 nrs=0 \
 sa=1.72e-06 sb=1.72e-06 sca=0.602605 scb=2.67635e-06 scc=7.14388e-12
mXI4\/XI18\/MNM15 ( N_XI4\/XI18\/NET255_XI4\/XI18\/MNM15_d \
 N_XI4\/XI18\/NET248_XI4\/XI18\/MNM15_g N_XI4\/XI18\/NET252_XI4\/XI18\/MNM15_s \
 N_GND_XI4\/XI18\/MNM6_b ) N_12_LLRVT l=6e-08 w=4e-07 ad=4e-14 as=4e-14 \
 pd=6e-07 ps=6e-07 nrd=0 nrs=0 sa=2.24e-06 sb=1.2e-06 sca=0.602605 \
 scb=2.67635e-06 scc=7.14388e-12
mXI4\/XI18\/MNM19 ( N_XI4\/XI18\/NET261_XI4\/XI18\/MNM19_d \
 N_B\<0\>_XI4\/XI18\/MNM19_g N_XI4\/XI18\/NET260_XI4\/XI18\/MNM19_s \
 N_GND_XI4\/XI18\/MNM6_b ) N_12_LLRVT l=6e-08 w=4e-07 ad=4e-14 as=4e-14 \
 pd=6e-07 ps=6e-07 nrd=0 nrs=0 sa=2.76e-06 sb=6.8e-07 sca=0.602605 \
 scb=2.67635e-06 scc=7.14388e-12
mXI4\/XI18\/MNM20 ( N_XI4\/XI18\/NET260_XI4\/XI18\/MNM20_d \
 N_A\<0\>_XI4\/XI18\/MNM20_g N_GND_XI4\/XI18\/MNM20_s N_GND_XI4\/XI18\/MNM6_b \
 ) N_12_LLRVT l=6e-08 w=4e-07 ad=4e-14 as=4e-14 pd=6e-07 ps=6e-07 nrd=0 nrs=0 \
 sa=3.02e-06 sb=4.2e-07 sca=0.602605 scb=2.67635e-06 scc=7.14388e-12
mXI4\/XI9\/MNM19 ( N_XI4\/XI9\/NET16_XI4\/XI9\/MNM19_d \
 N_B\<1\>_XI4\/XI9\/MNM19_g N_XI4\/XI9\/NET13_XI4\/XI9\/MNM19_s \
 N_GND_XI4\/XI18\/MNM6_b ) N_12_LLRVT l=6e-08 w=4e-07 ad=4e-14 as=4e-14 \
 pd=6e-07 ps=6e-07 nrd=0 nrs=0 sa=2.76e-06 sb=6.8e-07 sca=0.602605 \
 scb=2.67635e-06 scc=7.14388e-12
mXI4\/XI9\/MNM20 ( N_XI4\/XI9\/NET13_XI4\/XI9\/MNM20_d \
 N_A\<1\>_XI4\/XI9\/MNM20_g N_GND_XI4\/XI9\/MNM20_s N_GND_XI4\/XI18\/MNM6_b ) \
 N_12_LLRVT l=6e-08 w=4e-07 ad=4e-14 as=4e-14 pd=6e-07 ps=6e-07 nrd=0 nrs=0 \
 sa=3.02e-06 sb=4.2e-07 sca=0.602605 scb=2.67635e-06 scc=7.14388e-12
mXI4\/XI10\/MNM19 ( N_XI4\/XI10\/NET16_XI4\/XI10\/MNM19_d \
 N_B\<2\>_XI4\/XI10\/MNM19_g N_XI4\/XI10\/NET13_XI4\/XI10\/MNM19_s \
 N_GND_XI4\/XI18\/MNM6_b ) N_12_LLRVT l=6e-08 w=4e-07 ad=4e-14 as=4e-14 \
 pd=6e-07 ps=6e-07 nrd=0 nrs=0 sa=2.76e-06 sb=6.8e-07 sca=0.602605 \
 scb=2.67635e-06 scc=7.14388e-12
mXI4\/XI10\/MNM20 ( N_XI4\/XI10\/NET13_XI4\/XI10\/MNM20_d \
 N_A\<2\>_XI4\/XI10\/MNM20_g N_GND_XI4\/XI10\/MNM20_s N_GND_XI4\/XI18\/MNM6_b \
 ) N_12_LLRVT l=6e-08 w=4e-07 ad=4e-14 as=4e-14 pd=6e-07 ps=6e-07 nrd=0 nrs=0 \
 sa=3.02e-06 sb=4.2e-07 sca=0.602605 scb=2.67635e-06 scc=7.14388e-12
mXI4\/XI11\/MNM19 ( N_XI4\/XI11\/NET16_XI4\/XI11\/MNM19_d \
 N_B\<3\>_XI4\/XI11\/MNM19_g N_XI4\/XI11\/NET13_XI4\/XI11\/MNM19_s \
 N_GND_XI4\/XI18\/MNM6_b ) N_12_LLRVT l=6e-08 w=4e-07 ad=4e-14 as=4e-14 \
 pd=6e-07 ps=6e-07 nrd=0 nrs=0 sa=2.76e-06 sb=6.8e-07 sca=0.602605 \
 scb=2.67635e-06 scc=7.14388e-12
mXI4\/XI11\/MNM20 ( N_XI4\/XI11\/NET13_XI4\/XI11\/MNM20_d \
 N_A\<3\>_XI4\/XI11\/MNM20_g N_GND_XI4\/XI11\/MNM20_s N_GND_XI4\/XI18\/MNM6_b \
 ) N_12_LLRVT l=6e-08 w=4e-07 ad=4e-14 as=4e-14 pd=6e-07 ps=6e-07 nrd=0 nrs=0 \
 sa=3.02e-06 sb=4.2e-07 sca=0.602605 scb=2.67635e-06 scc=7.14388e-12
mXI4\/XI12\/MNM19 ( N_XI4\/XI12\/NET16_XI4\/XI12\/MNM19_d \
 N_B\<4\>_XI4\/XI12\/MNM19_g N_XI4\/XI12\/NET13_XI4\/XI12\/MNM19_s \
 N_GND_XI4\/XI18\/MNM6_b ) N_12_LLRVT l=6e-08 w=4e-07 ad=4e-14 as=4e-14 \
 pd=6e-07 ps=6e-07 nrd=0 nrs=0 sa=2.76e-06 sb=6.8e-07 sca=0.602605 \
 scb=2.67635e-06 scc=7.14388e-12
mXI4\/XI12\/MNM20 ( N_XI4\/XI12\/NET13_XI4\/XI12\/MNM20_d \
 N_A\<4\>_XI4\/XI12\/MNM20_g N_GND_XI4\/XI12\/MNM20_s N_GND_XI4\/XI18\/MNM6_b \
 ) N_12_LLRVT l=6e-08 w=4e-07 ad=4e-14 as=4e-14 pd=6e-07 ps=6e-07 nrd=0 nrs=0 \
 sa=3.02e-06 sb=4.2e-07 sca=0.602605 scb=2.67635e-06 scc=7.14388e-12
mXI4\/XI13\/MNM19 ( N_XI4\/XI13\/NET16_XI4\/XI13\/MNM19_d \
 N_B\<5\>_XI4\/XI13\/MNM19_g N_XI4\/XI13\/NET13_XI4\/XI13\/MNM19_s \
 N_GND_XI4\/XI18\/MNM6_b ) N_12_LLRVT l=6e-08 w=4e-07 ad=4e-14 as=4e-14 \
 pd=6e-07 ps=6e-07 nrd=0 nrs=0 sa=2.76e-06 sb=6.8e-07 sca=0.602605 \
 scb=2.67635e-06 scc=7.14388e-12
mXI4\/XI13\/MNM20 ( N_XI4\/XI13\/NET13_XI4\/XI13\/MNM20_d \
 N_A\<5\>_XI4\/XI13\/MNM20_g N_GND_XI4\/XI13\/MNM20_s N_GND_XI4\/XI18\/MNM6_b \
 ) N_12_LLRVT l=6e-08 w=4e-07 ad=4e-14 as=4e-14 pd=6e-07 ps=6e-07 nrd=0 nrs=0 \
 sa=3.02e-06 sb=4.2e-07 sca=0.602605 scb=2.67635e-06 scc=7.14388e-12
mXI4\/XI14\/MNM19 ( N_XI4\/XI14\/NET16_XI4\/XI14\/MNM19_d \
 N_B\<6\>_XI4\/XI14\/MNM19_g N_XI4\/XI14\/NET13_XI4\/XI14\/MNM19_s \
 N_GND_XI4\/XI18\/MNM6_b ) N_12_LLRVT l=6e-08 w=4e-07 ad=4e-14 as=4e-14 \
 pd=6e-07 ps=6e-07 nrd=0 nrs=0 sa=2.76e-06 sb=6.8e-07 sca=0.602605 \
 scb=2.67635e-06 scc=7.14388e-12
mXI4\/XI14\/MNM20 ( N_XI4\/XI14\/NET13_XI4\/XI14\/MNM20_d \
 N_A\<6\>_XI4\/XI14\/MNM20_g N_GND_XI4\/XI14\/MNM20_s N_GND_XI4\/XI18\/MNM6_b \
 ) N_12_LLRVT l=6e-08 w=4e-07 ad=4e-14 as=4e-14 pd=6e-07 ps=6e-07 nrd=0 nrs=0 \
 sa=3.02e-06 sb=4.2e-07 sca=0.602605 scb=2.67635e-06 scc=7.14388e-12
mXI4\/XI19\/MNM19 ( N_XI4\/XI19\/NET261_XI4\/XI19\/MNM19_d \
 N_B\<7\>_XI4\/XI19\/MNM19_g N_XI4\/XI19\/NET260_XI4\/XI19\/MNM19_s \
 N_GND_XI4\/XI18\/MNM6_b ) N_12_LLRVT l=6e-08 w=4e-07 ad=4e-14 as=4e-14 \
 pd=6e-07 ps=6e-07 nrd=0 nrs=0 sa=2.76e-06 sb=6.8e-07 sca=0.602605 \
 scb=2.67635e-06 scc=7.14388e-12
mXI4\/XI19\/MNM20 ( N_XI4\/XI19\/NET260_XI4\/XI19\/MNM20_d \
 N_A\<7\>_XI4\/XI19\/MNM20_g N_GND_XI4\/XI19\/MNM20_s N_GND_XI4\/XI18\/MNM6_b \
 ) N_12_LLRVT l=6e-08 w=4e-07 ad=4e-14 as=4e-14 pd=6e-07 ps=6e-07 nrd=0 nrs=0 \
 sa=3.02e-06 sb=4.2e-07 sca=0.602605 scb=2.67635e-06 scc=7.14388e-12
mXI4\/XI18\/MNM18 ( N_XI4\/XI18\/NET255_XI4\/XI18\/MNM18_d \
 N_GND_XI4\/XI18\/MNM18_g N_XI4\/XI18\/NET261_XI4\/XI18\/MNM18_s \
 N_GND_XI4\/XI18\/MNM6_b ) N_12_LLRVT l=6e-08 w=4e-07 ad=4e-14 as=4e-14 \
 pd=6e-07 ps=6e-07 nrd=0 nrs=0 sa=2.5e-06 sb=9.4e-07 sca=0.602605 \
 scb=2.67635e-06 scc=7.14388e-12
mXI4\/XI18\/MNM3 ( N_XI4\/XI18\/NET248_XI4\/XI18\/MNM3_d \
 N_A\<0\>_XI4\/XI18\/MNM3_g N_XI4\/XI18\/NET029_XI4\/XI18\/MNM3_s \
 N_GND_XI4\/XI18\/MNM6_b ) N_12_LLRVT l=6e-08 w=4e-07 ad=4e-14 as=4e-14 \
 pd=6e-07 ps=6e-07 nrd=0 nrs=0 sa=9.4e-07 sb=2.5e-06 sca=0.602605 \
 scb=2.67635e-06 scc=7.14388e-12
mXI4\/XI9\/MNM0 ( N_XI4\/XI9\/NET35_XI4\/XI9\/MNM0_d \
 N_XI4\/NET12_XI4\/XI9\/MNM0_g N_XI4\/XI9\/NET51_XI4\/XI9\/MNM0_s \
 N_GND_XI4\/XI18\/MNM6_b ) N_12_LLRVT l=6e-08 w=4e-07 ad=4e-14 as=4e-14 \
 pd=6e-07 ps=6e-07 nrd=0 nrs=0 sa=6.8e-07 sb=2.76e-06 sca=0.602605 \
 scb=2.67635e-06 scc=7.14388e-12
mXI4\/XI9\/MNM16 ( N_XI4\/XI9\/NET35_XI4\/XI9\/MNM16_d \
 N_A\<1\>_XI4\/XI9\/MNM16_g N_XI4\/XI9\/NET4_XI4\/XI9\/MNM16_s \
 N_GND_XI4\/XI18\/MNM6_b ) N_12_LLRVT l=6e-08 w=4e-07 ad=4e-14 as=4e-14 \
 pd=6e-07 ps=6e-07 nrd=0 nrs=0 sa=9.4e-07 sb=2.5e-06 sca=0.602605 \
 scb=2.67635e-06 scc=7.14388e-12
mXI4\/XI9\/MNM15 ( N_XI4\/XI9\/NET7_XI4\/XI9\/MNM15_d \
 N_XI4\/XI9\/NET35_XI4\/XI9\/MNM15_g N_XI4\/XI9\/NET21_XI4\/XI9\/MNM15_s \
 N_GND_XI4\/XI18\/MNM6_b ) N_12_LLRVT l=6e-08 w=4e-07 ad=4e-14 as=4e-14 \
 pd=6e-07 ps=6e-07 nrd=0 nrs=0 sa=2.24e-06 sb=1.2e-06 sca=0.602605 \
 scb=2.67635e-06 scc=7.14388e-12
mXI4\/XI9\/MNM18 ( N_XI4\/XI9\/NET7_XI4\/XI9\/MNM18_d \
 N_XI4\/NET12_XI4\/XI9\/MNM18_g N_XI4\/XI9\/NET16_XI4\/XI9\/MNM18_s \
 N_GND_XI4\/XI18\/MNM6_b ) N_12_LLRVT l=6e-08 w=4e-07 ad=4e-14 as=4e-14 \
 pd=6e-07 ps=6e-07 nrd=0 nrs=0 sa=2.5e-06 sb=9.4e-07 sca=0.602605 \
 scb=2.67635e-06 scc=7.14388e-12
mXI4\/XI10\/MNM0 ( N_XI4\/XI10\/NET35_XI4\/XI10\/MNM0_d \
 N_XI4\/NET16_XI4\/XI10\/MNM0_g N_XI4\/XI10\/NET51_XI4\/XI10\/MNM0_s \
 N_GND_XI4\/XI18\/MNM6_b ) N_12_LLRVT l=6e-08 w=4e-07 ad=4e-14 as=4e-14 \
 pd=6e-07 ps=6e-07 nrd=0 nrs=0 sa=6.8e-07 sb=2.76e-06 sca=0.602605 \
 scb=2.67635e-06 scc=7.14388e-12
mXI4\/XI10\/MNM16 ( N_XI4\/XI10\/NET35_XI4\/XI10\/MNM16_d \
 N_A\<2\>_XI4\/XI10\/MNM16_g N_XI4\/XI10\/NET4_XI4\/XI10\/MNM16_s \
 N_GND_XI4\/XI18\/MNM6_b ) N_12_LLRVT l=6e-08 w=4e-07 ad=4e-14 as=4e-14 \
 pd=6e-07 ps=6e-07 nrd=0 nrs=0 sa=9.4e-07 sb=2.5e-06 sca=0.602605 \
 scb=2.67635e-06 scc=7.14388e-12
mXI4\/XI10\/MNM15 ( N_XI4\/XI10\/NET7_XI4\/XI10\/MNM15_d \
 N_XI4\/XI10\/NET35_XI4\/XI10\/MNM15_g N_XI4\/XI10\/NET21_XI4\/XI10\/MNM15_s \
 N_GND_XI4\/XI18\/MNM6_b ) N_12_LLRVT l=6e-08 w=4e-07 ad=4e-14 as=4e-14 \
 pd=6e-07 ps=6e-07 nrd=0 nrs=0 sa=2.24e-06 sb=1.2e-06 sca=0.602605 \
 scb=2.67635e-06 scc=7.14388e-12
mXI4\/XI10\/MNM18 ( N_XI4\/XI10\/NET7_XI4\/XI10\/MNM18_d \
 N_XI4\/NET16_XI4\/XI10\/MNM18_g N_XI4\/XI10\/NET16_XI4\/XI10\/MNM18_s \
 N_GND_XI4\/XI18\/MNM6_b ) N_12_LLRVT l=6e-08 w=4e-07 ad=4e-14 as=4e-14 \
 pd=6e-07 ps=6e-07 nrd=0 nrs=0 sa=2.5e-06 sb=9.4e-07 sca=0.602605 \
 scb=2.67635e-06 scc=7.14388e-12
mXI4\/XI11\/MNM0 ( N_XI4\/XI11\/NET35_XI4\/XI11\/MNM0_d \
 N_XI4\/NET18_XI4\/XI11\/MNM0_g N_XI4\/XI11\/NET51_XI4\/XI11\/MNM0_s \
 N_GND_XI4\/XI18\/MNM6_b ) N_12_LLRVT l=6e-08 w=4e-07 ad=4e-14 as=4e-14 \
 pd=6e-07 ps=6e-07 nrd=0 nrs=0 sa=6.8e-07 sb=2.76e-06 sca=0.602605 \
 scb=2.67635e-06 scc=7.14388e-12
mXI4\/XI11\/MNM16 ( N_XI4\/XI11\/NET35_XI4\/XI11\/MNM16_d \
 N_A\<3\>_XI4\/XI11\/MNM16_g N_XI4\/XI11\/NET4_XI4\/XI11\/MNM16_s \
 N_GND_XI4\/XI18\/MNM6_b ) N_12_LLRVT l=6e-08 w=4e-07 ad=4e-14 as=4e-14 \
 pd=6e-07 ps=6e-07 nrd=0 nrs=0 sa=9.4e-07 sb=2.5e-06 sca=0.602605 \
 scb=2.67635e-06 scc=7.14388e-12
mXI4\/XI11\/MNM15 ( N_XI4\/XI11\/NET7_XI4\/XI11\/MNM15_d \
 N_XI4\/XI11\/NET35_XI4\/XI11\/MNM15_g N_XI4\/XI11\/NET21_XI4\/XI11\/MNM15_s \
 N_GND_XI4\/XI18\/MNM6_b ) N_12_LLRVT l=6e-08 w=4e-07 ad=4e-14 as=4e-14 \
 pd=6e-07 ps=6e-07 nrd=0 nrs=0 sa=2.24e-06 sb=1.2e-06 sca=0.602605 \
 scb=2.67635e-06 scc=7.14388e-12
mXI4\/XI11\/MNM18 ( N_XI4\/XI11\/NET7_XI4\/XI11\/MNM18_d \
 N_XI4\/NET18_XI4\/XI11\/MNM18_g N_XI4\/XI11\/NET16_XI4\/XI11\/MNM18_s \
 N_GND_XI4\/XI18\/MNM6_b ) N_12_LLRVT l=6e-08 w=4e-07 ad=4e-14 as=4e-14 \
 pd=6e-07 ps=6e-07 nrd=0 nrs=0 sa=2.5e-06 sb=9.4e-07 sca=0.602605 \
 scb=2.67635e-06 scc=7.14388e-12
mXI4\/XI12\/MNM0 ( N_XI4\/XI12\/NET35_XI4\/XI12\/MNM0_d \
 N_XI4\/NET20_XI4\/XI12\/MNM0_g N_XI4\/XI12\/NET51_XI4\/XI12\/MNM0_s \
 N_GND_XI4\/XI18\/MNM6_b ) N_12_LLRVT l=6e-08 w=4e-07 ad=4e-14 as=4e-14 \
 pd=6e-07 ps=6e-07 nrd=0 nrs=0 sa=6.8e-07 sb=2.76e-06 sca=0.602605 \
 scb=2.67635e-06 scc=7.14388e-12
mXI4\/XI12\/MNM16 ( N_XI4\/XI12\/NET35_XI4\/XI12\/MNM16_d \
 N_A\<4\>_XI4\/XI12\/MNM16_g N_XI4\/XI12\/NET4_XI4\/XI12\/MNM16_s \
 N_GND_XI4\/XI18\/MNM6_b ) N_12_LLRVT l=6e-08 w=4e-07 ad=4e-14 as=4e-14 \
 pd=6e-07 ps=6e-07 nrd=0 nrs=0 sa=9.4e-07 sb=2.5e-06 sca=0.602605 \
 scb=2.67635e-06 scc=7.14388e-12
mXI4\/XI12\/MNM15 ( N_XI4\/XI12\/NET7_XI4\/XI12\/MNM15_d \
 N_XI4\/XI12\/NET35_XI4\/XI12\/MNM15_g N_XI4\/XI12\/NET21_XI4\/XI12\/MNM15_s \
 N_GND_XI4\/XI18\/MNM6_b ) N_12_LLRVT l=6e-08 w=4e-07 ad=4e-14 as=4e-14 \
 pd=6e-07 ps=6e-07 nrd=0 nrs=0 sa=2.24e-06 sb=1.2e-06 sca=0.602605 \
 scb=2.67635e-06 scc=7.14388e-12
mXI4\/XI12\/MNM18 ( N_XI4\/XI12\/NET7_XI4\/XI12\/MNM18_d \
 N_XI4\/NET20_XI4\/XI12\/MNM18_g N_XI4\/XI12\/NET16_XI4\/XI12\/MNM18_s \
 N_GND_XI4\/XI18\/MNM6_b ) N_12_LLRVT l=6e-08 w=4e-07 ad=4e-14 as=4e-14 \
 pd=6e-07 ps=6e-07 nrd=0 nrs=0 sa=2.5e-06 sb=9.4e-07 sca=0.602605 \
 scb=2.67635e-06 scc=7.14388e-12
mXI4\/XI13\/MNM0 ( N_XI4\/XI13\/NET35_XI4\/XI13\/MNM0_d \
 N_XI4\/NET22_XI4\/XI13\/MNM0_g N_XI4\/XI13\/NET51_XI4\/XI13\/MNM0_s \
 N_GND_XI4\/XI18\/MNM6_b ) N_12_LLRVT l=6e-08 w=4e-07 ad=4e-14 as=4e-14 \
 pd=6e-07 ps=6e-07 nrd=0 nrs=0 sa=6.8e-07 sb=2.76e-06 sca=0.602605 \
 scb=2.67635e-06 scc=7.14388e-12
mXI4\/XI13\/MNM16 ( N_XI4\/XI13\/NET35_XI4\/XI13\/MNM16_d \
 N_A\<5\>_XI4\/XI13\/MNM16_g N_XI4\/XI13\/NET4_XI4\/XI13\/MNM16_s \
 N_GND_XI4\/XI18\/MNM6_b ) N_12_LLRVT l=6e-08 w=4e-07 ad=4e-14 as=4e-14 \
 pd=6e-07 ps=6e-07 nrd=0 nrs=0 sa=9.4e-07 sb=2.5e-06 sca=0.602605 \
 scb=2.67635e-06 scc=7.14388e-12
mXI4\/XI13\/MNM15 ( N_XI4\/XI13\/NET7_XI4\/XI13\/MNM15_d \
 N_XI4\/XI13\/NET35_XI4\/XI13\/MNM15_g N_XI4\/XI13\/NET21_XI4\/XI13\/MNM15_s \
 N_GND_XI4\/XI18\/MNM6_b ) N_12_LLRVT l=6e-08 w=4e-07 ad=4e-14 as=4e-14 \
 pd=6e-07 ps=6e-07 nrd=0 nrs=0 sa=2.24e-06 sb=1.2e-06 sca=0.602605 \
 scb=2.67635e-06 scc=7.14388e-12
mXI4\/XI13\/MNM18 ( N_XI4\/XI13\/NET7_XI4\/XI13\/MNM18_d \
 N_XI4\/NET22_XI4\/XI13\/MNM18_g N_XI4\/XI13\/NET16_XI4\/XI13\/MNM18_s \
 N_GND_XI4\/XI18\/MNM6_b ) N_12_LLRVT l=6e-08 w=4e-07 ad=4e-14 as=4e-14 \
 pd=6e-07 ps=6e-07 nrd=0 nrs=0 sa=2.5e-06 sb=9.4e-07 sca=0.602605 \
 scb=2.67635e-06 scc=7.14388e-12
mXI4\/XI14\/MNM0 ( N_XI4\/XI14\/NET35_XI4\/XI14\/MNM0_d \
 N_XI4\/NET24_XI4\/XI14\/MNM0_g N_XI4\/XI14\/NET51_XI4\/XI14\/MNM0_s \
 N_GND_XI4\/XI18\/MNM6_b ) N_12_LLRVT l=6e-08 w=4e-07 ad=4e-14 as=4e-14 \
 pd=6e-07 ps=6e-07 nrd=0 nrs=0 sa=6.8e-07 sb=2.76e-06 sca=0.602605 \
 scb=2.67635e-06 scc=7.14388e-12
mXI4\/XI14\/MNM16 ( N_XI4\/XI14\/NET35_XI4\/XI14\/MNM16_d \
 N_A\<6\>_XI4\/XI14\/MNM16_g N_XI4\/XI14\/NET4_XI4\/XI14\/MNM16_s \
 N_GND_XI4\/XI18\/MNM6_b ) N_12_LLRVT l=6e-08 w=4e-07 ad=4e-14 as=4e-14 \
 pd=6e-07 ps=6e-07 nrd=0 nrs=0 sa=9.4e-07 sb=2.5e-06 sca=0.602605 \
 scb=2.67635e-06 scc=7.14388e-12
mXI4\/XI14\/MNM15 ( N_XI4\/XI14\/NET7_XI4\/XI14\/MNM15_d \
 N_XI4\/XI14\/NET35_XI4\/XI14\/MNM15_g N_XI4\/XI14\/NET21_XI4\/XI14\/MNM15_s \
 N_GND_XI4\/XI18\/MNM6_b ) N_12_LLRVT l=6e-08 w=4e-07 ad=4e-14 as=4e-14 \
 pd=6e-07 ps=6e-07 nrd=0 nrs=0 sa=2.24e-06 sb=1.2e-06 sca=0.602605 \
 scb=2.67635e-06 scc=7.14388e-12
mXI4\/XI14\/MNM18 ( N_XI4\/XI14\/NET7_XI4\/XI14\/MNM18_d \
 N_XI4\/NET24_XI4\/XI14\/MNM18_g N_XI4\/XI14\/NET16_XI4\/XI14\/MNM18_s \
 N_GND_XI4\/XI18\/MNM6_b ) N_12_LLRVT l=6e-08 w=4e-07 ad=4e-14 as=4e-14 \
 pd=6e-07 ps=6e-07 nrd=0 nrs=0 sa=2.5e-06 sb=9.4e-07 sca=0.602605 \
 scb=2.67635e-06 scc=7.14388e-12
mXI4\/XI19\/MNM0 ( N_XI4\/XI19\/NET248_XI4\/XI19\/MNM0_d \
 N_XI4\/NET26_XI4\/XI19\/MNM0_g N_XI4\/XI19\/NET246_XI4\/XI19\/MNM0_s \
 N_GND_XI4\/XI18\/MNM6_b ) N_12_LLRVT l=6e-08 w=4e-07 ad=4e-14 as=4e-14 \
 pd=6e-07 ps=6e-07 nrd=0 nrs=0 sa=6.8e-07 sb=2.76e-06 sca=0.602605 \
 scb=2.67635e-06 scc=7.14388e-12
mXI4\/XI19\/MNM16 ( N_XI4\/XI19\/NET248_XI4\/XI19\/MNM16_d \
 N_A\<7\>_XI4\/XI19\/MNM16_g N_XI4\/XI19\/NET262_XI4\/XI19\/MNM16_s \
 N_GND_XI4\/XI18\/MNM6_b ) N_12_LLRVT l=6e-08 w=4e-07 ad=4e-14 as=4e-14 \
 pd=6e-07 ps=6e-07 nrd=0 nrs=0 sa=9.4e-07 sb=2.5e-06 sca=0.602605 \
 scb=2.67635e-06 scc=7.14388e-12
mXI4\/XI19\/MNM15 ( N_XI4\/XI19\/NET255_XI4\/XI19\/MNM15_d \
 N_XI4\/XI19\/NET248_XI4\/XI19\/MNM15_g N_XI4\/XI19\/NET252_XI4\/XI19\/MNM15_s \
 N_GND_XI4\/XI18\/MNM6_b ) N_12_LLRVT l=6e-08 w=4e-07 ad=4e-14 as=4e-14 \
 pd=6e-07 ps=6e-07 nrd=0 nrs=0 sa=2.24e-06 sb=1.2e-06 sca=0.602605 \
 scb=2.67635e-06 scc=7.14388e-12
mXI4\/XI19\/MNM18 ( N_XI4\/XI19\/NET255_XI4\/XI19\/MNM18_d \
 N_XI4\/NET26_XI4\/XI19\/MNM18_g N_XI4\/XI19\/NET261_XI4\/XI19\/MNM18_s \
 N_GND_XI4\/XI18\/MNM6_b ) N_12_LLRVT l=6e-08 w=4e-07 ad=4e-14 as=4e-14 \
 pd=6e-07 ps=6e-07 nrd=0 nrs=0 sa=2.5e-06 sb=9.4e-07 sca=0.602605 \
 scb=2.67635e-06 scc=7.14388e-12
mXI4\/XI18\/MNM1 ( N_XI4\/XI18\/NET246_XI4\/XI18\/MNM1_d \
 N_A\<0\>_XI4\/XI18\/MNM1_g N_GND_XI4\/XI18\/MNM1_s N_GND_XI4\/XI18\/MNM6_b ) \
 N_12_LLRVT l=6e-08 w=4e-07 ad=4e-14 as=4e-14 pd=6e-07 ps=6e-07 nrd=0 nrs=0 \
 sa=4.2e-07 sb=3.02e-06 sca=0.602605 scb=2.67635e-06 scc=7.14388e-12
mXI4\/XI18\/MNM4 ( N_XI4\/XI18\/NET029_XI4\/XI18\/MNM4_d \
 N_B\<0\>_XI4\/XI18\/MNM4_g N_GND_XI4\/XI18\/MNM4_s N_GND_XI4\/XI18\/MNM6_b ) \
 N_12_LLRVT l=6e-08 w=4e-07 ad=4e-14 as=4e-14 pd=6e-07 ps=6e-07 nrd=0 nrs=0 \
 sa=1.2e-06 sb=2.24e-06 sca=0.602605 scb=2.67635e-06 scc=7.14388e-12
mXI4\/XI9\/MNM17 ( N_XI4\/XI9\/NET4_XI4\/XI9\/MNM17_d \
 N_B\<1\>_XI4\/XI9\/MNM17_g N_GND_XI4\/XI9\/MNM17_s N_GND_XI4\/XI18\/MNM6_b ) \
 N_12_LLRVT l=6e-08 w=4e-07 ad=4e-14 as=4e-14 pd=6e-07 ps=6e-07 nrd=0 nrs=0 \
 sa=1.2e-06 sb=2.24e-06 sca=0.602605 scb=2.67635e-06 scc=7.14388e-12
mXI4\/XI10\/MNM17 ( N_XI4\/XI10\/NET4_XI4\/XI10\/MNM17_d \
 N_B\<2\>_XI4\/XI10\/MNM17_g N_GND_XI4\/XI10\/MNM17_s N_GND_XI4\/XI18\/MNM6_b \
 ) N_12_LLRVT l=6e-08 w=4e-07 ad=4e-14 as=4e-14 pd=6e-07 ps=6e-07 nrd=0 nrs=0 \
 sa=1.2e-06 sb=2.24e-06 sca=0.602605 scb=2.67635e-06 scc=7.14388e-12
mXI4\/XI11\/MNM17 ( N_XI4\/XI11\/NET4_XI4\/XI11\/MNM17_d \
 N_B\<3\>_XI4\/XI11\/MNM17_g N_GND_XI4\/XI11\/MNM17_s N_GND_XI4\/XI18\/MNM6_b \
 ) N_12_LLRVT l=6e-08 w=4e-07 ad=4e-14 as=4e-14 pd=6e-07 ps=6e-07 nrd=0 nrs=0 \
 sa=1.2e-06 sb=2.24e-06 sca=0.602605 scb=2.67635e-06 scc=7.14388e-12
mXI4\/XI12\/MNM17 ( N_XI4\/XI12\/NET4_XI4\/XI12\/MNM17_d \
 N_B\<4\>_XI4\/XI12\/MNM17_g N_GND_XI4\/XI12\/MNM17_s N_GND_XI4\/XI18\/MNM6_b \
 ) N_12_LLRVT l=6e-08 w=4e-07 ad=4e-14 as=4e-14 pd=6e-07 ps=6e-07 nrd=0 nrs=0 \
 sa=1.2e-06 sb=2.24e-06 sca=0.602605 scb=2.67635e-06 scc=7.14388e-12
mXI4\/XI13\/MNM17 ( N_XI4\/XI13\/NET4_XI4\/XI13\/MNM17_d \
 N_B\<5\>_XI4\/XI13\/MNM17_g N_GND_XI4\/XI13\/MNM17_s N_GND_XI4\/XI18\/MNM6_b \
 ) N_12_LLRVT l=6e-08 w=4e-07 ad=4e-14 as=4e-14 pd=6e-07 ps=6e-07 nrd=0 nrs=0 \
 sa=1.2e-06 sb=2.24e-06 sca=0.602605 scb=2.67635e-06 scc=7.14388e-12
mXI4\/XI14\/MNM17 ( N_XI4\/XI14\/NET4_XI4\/XI14\/MNM17_d \
 N_B\<6\>_XI4\/XI14\/MNM17_g N_GND_XI4\/XI14\/MNM17_s N_GND_XI4\/XI18\/MNM6_b \
 ) N_12_LLRVT l=6e-08 w=4e-07 ad=4e-14 as=4e-14 pd=6e-07 ps=6e-07 nrd=0 nrs=0 \
 sa=1.2e-06 sb=2.24e-06 sca=0.602605 scb=2.67635e-06 scc=7.14388e-12
mXI4\/XI19\/MNM17 ( N_XI4\/XI19\/NET262_XI4\/XI19\/MNM17_d \
 N_B\<7\>_XI4\/XI19\/MNM17_g N_GND_XI4\/XI19\/MNM17_s N_GND_XI4\/XI18\/MNM6_b \
 ) N_12_LLRVT l=6e-08 w=4e-07 ad=4e-14 as=4e-14 pd=6e-07 ps=6e-07 nrd=0 nrs=0 \
 sa=1.2e-06 sb=2.24e-06 sca=0.602605 scb=2.67635e-06 scc=7.14388e-12
mXI4\/XI18\/MPM22 ( N_XI4\/XI18\/NET253_XI4\/XI18\/MPM22_d \
 N_A\<0\>_XI4\/XI18\/MPM22_g N_VDD_XI4\/XI18\/MPM22_s N_VDD_XI4\/XI18\/MPM0_b \
 ) P_12_LLRVT l=6e-08 w=8e-07 ad=8e-14 as=8e-14 pd=1e-06 ps=1e-06 nrd=0 nrs=0 \
 sa=1.46e-06 sb=1.98e-06 sca=34.1152 scb=0.0233305 scc=0.00354076
mXI4\/XI18\/MPM23 ( N_XI4\/XI18\/NET253_XI4\/XI18\/MPM23_d \
 N_B\<0\>_XI4\/XI18\/MPM23_g N_VDD_XI4\/XI18\/MPM23_s N_VDD_XI4\/XI18\/MPM0_b \
 ) P_12_LLRVT l=6e-08 w=8e-07 ad=8e-14 as=8e-14 pd=1e-06 ps=1e-06 nrd=0 nrs=0 \
 sa=1.72e-06 sb=1.72e-06 sca=33.8408 scb=0.0231782 scc=0.0035407
mXI4\/XI18\/MPM24 ( N_XI4\/XI18\/NET253_XI4\/XI18\/MPM24_d \
 N_GND_XI4\/XI18\/MPM24_g N_VDD_XI4\/XI18\/MPM24_s N_VDD_XI4\/XI18\/MPM0_b ) \
 P_12_LLRVT l=6e-08 w=8e-07 ad=8e-14 as=8e-14 pd=1e-06 ps=1e-06 nrd=0 nrs=0 \
 sa=1.98e-06 sb=1.46e-06 sca=33.7323 scb=0.0231364 scc=0.00354069
mXI4\/XI18\/MPM33 ( N_XI4\/XI18\/NET255_XI4\/XI18\/MPM33_d \
 N_GND_XI4\/XI18\/MPM33_g N_XI4\/XI18\/NET258_XI4\/XI18\/MPM33_s \
 N_VDD_XI4\/XI18\/MPM0_b ) P_12_LLRVT l=6e-08 w=8e-07 ad=8e-14 as=8e-14 \
 pd=1e-06 ps=1e-06 nrd=0 nrs=0 sa=2.5e-06 sb=9.4e-07 sca=33.9234 scb=0.0232171 \
 scc=0.00354071
mXI4\/XI18\/MPM32 ( N_XI4\/XI18\/NET258_XI4\/XI18\/MPM32_d \
 N_B\<0\>_XI4\/XI18\/MPM32_g N_XI4\/XI18\/NET257_XI4\/XI18\/MPM32_s \
 N_VDD_XI4\/XI18\/MPM0_b ) P_12_LLRVT l=6e-08 w=8e-07 ad=8e-14 as=8e-14 \
 pd=1e-06 ps=1e-06 nrd=0 nrs=0 sa=2.76e-06 sb=6.8e-07 sca=34.2816 \
 scb=0.0234539 scc=0.00354085
mXI4\/XI18\/MPM31 ( N_XI4\/XI18\/NET257_XI4\/XI18\/MPM31_d \
 N_A\<0\>_XI4\/XI18\/MPM31_g N_VDD_XI4\/XI18\/MPM31_s N_VDD_XI4\/XI18\/MPM0_b \
 ) P_12_LLRVT l=6e-08 w=8e-07 ad=8e-14 as=8e-14 pd=1e-06 ps=1e-06 nrd=0 nrs=0 \
 sa=3.02e-06 sb=4.2e-07 sca=34.9649 scb=0.02417 scc=0.00354248
mXI4\/XI9\/MPM32 ( N_XI4\/XI9\/NET031_XI4\/XI9\/MPM32_d \
 N_B\<1\>_XI4\/XI9\/MPM32_g N_XI4\/XI9\/NET032_XI4\/XI9\/MPM32_s \
 N_VDD_XI4\/XI18\/MPM0_b ) P_12_LLRVT l=6e-08 w=8e-07 ad=8e-14 as=8e-14 \
 pd=1e-06 ps=1e-06 nrd=0 nrs=0 sa=2.76e-06 sb=6.8e-07 sca=34.2816 \
 scb=0.0234539 scc=0.00354085
mXI4\/XI9\/MPM31 ( N_XI4\/XI9\/NET032_XI4\/XI9\/MPM31_d \
 N_A\<1\>_XI4\/XI9\/MPM31_g N_VDD_XI4\/XI9\/MPM31_s N_VDD_XI4\/XI18\/MPM0_b ) \
 P_12_LLRVT l=6e-08 w=8e-07 ad=8e-14 as=8e-14 pd=1e-06 ps=1e-06 nrd=0 nrs=0 \
 sa=3.02e-06 sb=4.2e-07 sca=34.9649 scb=0.02417 scc=0.00354248
mXI4\/XI10\/MPM32 ( N_XI4\/XI10\/NET031_XI4\/XI10\/MPM32_d \
 N_B\<2\>_XI4\/XI10\/MPM32_g N_XI4\/XI10\/NET032_XI4\/XI10\/MPM32_s \
 N_VDD_XI4\/XI18\/MPM0_b ) P_12_LLRVT l=6e-08 w=8e-07 ad=8e-14 as=8e-14 \
 pd=1e-06 ps=1e-06 nrd=0 nrs=0 sa=2.76e-06 sb=6.8e-07 sca=34.2816 \
 scb=0.0234539 scc=0.00354085
mXI4\/XI10\/MPM31 ( N_XI4\/XI10\/NET032_XI4\/XI10\/MPM31_d \
 N_A\<2\>_XI4\/XI10\/MPM31_g N_VDD_XI4\/XI10\/MPM31_s N_VDD_XI4\/XI18\/MPM0_b \
 ) P_12_LLRVT l=6e-08 w=8e-07 ad=8e-14 as=8e-14 pd=1e-06 ps=1e-06 nrd=0 nrs=0 \
 sa=3.02e-06 sb=4.2e-07 sca=34.9649 scb=0.02417 scc=0.00354248
mXI4\/XI11\/MPM32 ( N_XI4\/XI11\/NET031_XI4\/XI11\/MPM32_d \
 N_B\<3\>_XI4\/XI11\/MPM32_g N_XI4\/XI11\/NET032_XI4\/XI11\/MPM32_s \
 N_VDD_XI4\/XI18\/MPM0_b ) P_12_LLRVT l=6e-08 w=8e-07 ad=8e-14 as=8e-14 \
 pd=1e-06 ps=1e-06 nrd=0 nrs=0 sa=2.76e-06 sb=6.8e-07 sca=34.2816 \
 scb=0.0234539 scc=0.00354085
mXI4\/XI11\/MPM31 ( N_XI4\/XI11\/NET032_XI4\/XI11\/MPM31_d \
 N_A\<3\>_XI4\/XI11\/MPM31_g N_VDD_XI4\/XI11\/MPM31_s N_VDD_XI4\/XI18\/MPM0_b \
 ) P_12_LLRVT l=6e-08 w=8e-07 ad=8e-14 as=8e-14 pd=1e-06 ps=1e-06 nrd=0 nrs=0 \
 sa=3.02e-06 sb=4.2e-07 sca=34.9649 scb=0.02417 scc=0.00354248
mXI4\/XI12\/MPM32 ( N_XI4\/XI12\/NET031_XI4\/XI12\/MPM32_d \
 N_B\<4\>_XI4\/XI12\/MPM32_g N_XI4\/XI12\/NET032_XI4\/XI12\/MPM32_s \
 N_VDD_XI4\/XI18\/MPM0_b ) P_12_LLRVT l=6e-08 w=8e-07 ad=8e-14 as=8e-14 \
 pd=1e-06 ps=1e-06 nrd=0 nrs=0 sa=2.76e-06 sb=6.8e-07 sca=34.2816 \
 scb=0.0234539 scc=0.00354085
mXI4\/XI12\/MPM31 ( N_XI4\/XI12\/NET032_XI4\/XI12\/MPM31_d \
 N_A\<4\>_XI4\/XI12\/MPM31_g N_VDD_XI4\/XI12\/MPM31_s N_VDD_XI4\/XI18\/MPM0_b \
 ) P_12_LLRVT l=6e-08 w=8e-07 ad=8e-14 as=8e-14 pd=1e-06 ps=1e-06 nrd=0 nrs=0 \
 sa=3.02e-06 sb=4.2e-07 sca=34.9649 scb=0.02417 scc=0.00354248
mXI4\/XI13\/MPM32 ( N_XI4\/XI13\/NET031_XI4\/XI13\/MPM32_d \
 N_B\<5\>_XI4\/XI13\/MPM32_g N_XI4\/XI13\/NET032_XI4\/XI13\/MPM32_s \
 N_VDD_XI4\/XI18\/MPM0_b ) P_12_LLRVT l=6e-08 w=8e-07 ad=8e-14 as=8e-14 \
 pd=1e-06 ps=1e-06 nrd=0 nrs=0 sa=2.76e-06 sb=6.8e-07 sca=34.2816 \
 scb=0.0234539 scc=0.00354085
mXI4\/XI13\/MPM31 ( N_XI4\/XI13\/NET032_XI4\/XI13\/MPM31_d \
 N_A\<5\>_XI4\/XI13\/MPM31_g N_VDD_XI4\/XI13\/MPM31_s N_VDD_XI4\/XI18\/MPM0_b \
 ) P_12_LLRVT l=6e-08 w=8e-07 ad=8e-14 as=8e-14 pd=1e-06 ps=1e-06 nrd=0 nrs=0 \
 sa=3.02e-06 sb=4.2e-07 sca=34.9649 scb=0.02417 scc=0.00354248
mXI4\/XI14\/MPM32 ( N_XI4\/XI14\/NET031_XI4\/XI14\/MPM32_d \
 N_B\<6\>_XI4\/XI14\/MPM32_g N_XI4\/XI14\/NET032_XI4\/XI14\/MPM32_s \
 N_VDD_XI4\/XI18\/MPM0_b ) P_12_LLRVT l=6e-08 w=8e-07 ad=8e-14 as=8e-14 \
 pd=1e-06 ps=1e-06 nrd=0 nrs=0 sa=2.76e-06 sb=6.8e-07 sca=34.2816 \
 scb=0.0234539 scc=0.00354085
mXI4\/XI14\/MPM31 ( N_XI4\/XI14\/NET032_XI4\/XI14\/MPM31_d \
 N_A\<6\>_XI4\/XI14\/MPM31_g N_VDD_XI4\/XI14\/MPM31_s N_VDD_XI4\/XI18\/MPM0_b \
 ) P_12_LLRVT l=6e-08 w=8e-07 ad=8e-14 as=8e-14 pd=1e-06 ps=1e-06 nrd=0 nrs=0 \
 sa=3.02e-06 sb=4.2e-07 sca=34.9649 scb=0.02417 scc=0.00354248
mXI4\/XI19\/MPM32 ( N_XI4\/XI19\/NET258_XI4\/XI19\/MPM32_d \
 N_B\<7\>_XI4\/XI19\/MPM32_g N_XI4\/XI19\/NET257_XI4\/XI19\/MPM32_s \
 N_VDD_XI4\/XI18\/MPM0_b ) P_12_LLRVT l=6e-08 w=8e-07 ad=8e-14 as=8e-14 \
 pd=1e-06 ps=1e-06 nrd=0 nrs=0 sa=2.76e-06 sb=6.8e-07 sca=34.2816 \
 scb=0.0234539 scc=0.00354085
mXI4\/XI19\/MPM31 ( N_XI4\/XI19\/NET257_XI4\/XI19\/MPM31_d \
 N_A\<7\>_XI4\/XI19\/MPM31_g N_VDD_XI4\/XI19\/MPM31_s N_VDD_XI4\/XI18\/MPM0_b \
 ) P_12_LLRVT l=6e-08 w=8e-07 ad=8e-14 as=8e-14 pd=1e-06 ps=1e-06 nrd=0 nrs=0 \
 sa=3.02e-06 sb=4.2e-07 sca=34.9649 scb=0.02417 scc=0.00354248
mXI4\/XI18\/MPM30 ( N_XI4\/XI18\/NET248_XI4\/XI18\/MPM30_d \
 N_A\<0\>_XI4\/XI18\/MPM30_g N_XI4\/XI18\/NET259_XI4\/XI18\/MPM30_s \
 N_VDD_XI4\/XI18\/MPM0_b ) P_12_LLRVT l=6e-08 w=8e-07 ad=8e-14 as=8e-14 \
 pd=1e-06 ps=1e-06 nrd=0 nrs=0 sa=9.4e-07 sb=2.5e-06 sca=35.6769 scb=0.0251795 \
 scc=0.00354845
mXI4\/XI9\/MPM16 ( N_XI4\/XI9\/NET35_XI4\/XI9\/MPM16_d \
 N_XI4\/NET12_XI4\/XI9\/MPM16_g N_XI4\/XI9\/NET06_XI4\/XI9\/MPM16_s \
 N_VDD_XI4\/XI18\/MPM0_b ) P_12_LLRVT l=6e-08 w=8e-07 ad=8e-14 as=8e-14 \
 pd=1e-06 ps=1e-06 nrd=0 nrs=0 sa=6.8e-07 sb=2.76e-06 sca=37.8517 \
 scb=0.0289498 scc=0.00362077
mXI4\/XI9\/MPM30 ( N_XI4\/XI9\/NET35_XI4\/XI9\/MPM30_d \
 N_A\<1\>_XI4\/XI9\/MPM30_g N_XI4\/XI9\/NET033_XI4\/XI9\/MPM30_s \
 N_VDD_XI4\/XI18\/MPM0_b ) P_12_LLRVT l=6e-08 w=8e-07 ad=8e-14 as=8e-14 \
 pd=1e-06 ps=1e-06 nrd=0 nrs=0 sa=9.4e-07 sb=2.5e-06 sca=35.6769 scb=0.0251795 \
 scc=0.00354845
mXI4\/XI9\/MPM21 ( N_XI4\/XI9\/NET7_XI4\/XI9\/MPM21_d \
 N_XI4\/XI9\/NET35_XI4\/XI9\/MPM21_g N_XI4\/XI9\/NET015_XI4\/XI9\/MPM21_s \
 N_VDD_XI4\/XI18\/MPM0_b ) P_12_LLRVT l=6e-08 w=8e-07 ad=8e-14 as=8e-14 \
 pd=1e-06 ps=1e-06 nrd=0 nrs=0 sa=2.24e-06 sb=1.2e-06 sca=33.7574 \
 scb=0.0231451 scc=0.00354069
mXI4\/XI9\/MPM33 ( N_XI4\/XI9\/NET7_XI4\/XI9\/MPM33_d \
 N_XI4\/NET12_XI4\/XI9\/MPM33_g N_XI4\/XI9\/NET031_XI4\/XI9\/MPM33_s \
 N_VDD_XI4\/XI18\/MPM0_b ) P_12_LLRVT l=6e-08 w=8e-07 ad=8e-14 as=8e-14 \
 pd=1e-06 ps=1e-06 nrd=0 nrs=0 sa=2.5e-06 sb=9.4e-07 sca=33.9234 scb=0.0232171 \
 scc=0.00354071
mXI4\/XI10\/MPM16 ( N_XI4\/XI10\/NET35_XI4\/XI10\/MPM16_d \
 N_XI4\/NET16_XI4\/XI10\/MPM16_g N_XI4\/XI10\/NET06_XI4\/XI10\/MPM16_s \
 N_VDD_XI4\/XI18\/MPM0_b ) P_12_LLRVT l=6e-08 w=8e-07 ad=8e-14 as=8e-14 \
 pd=1e-06 ps=1e-06 nrd=0 nrs=0 sa=6.8e-07 sb=2.76e-06 sca=37.8517 \
 scb=0.0289498 scc=0.00362077
mXI4\/XI10\/MPM30 ( N_XI4\/XI10\/NET35_XI4\/XI10\/MPM30_d \
 N_A\<2\>_XI4\/XI10\/MPM30_g N_XI4\/XI10\/NET033_XI4\/XI10\/MPM30_s \
 N_VDD_XI4\/XI18\/MPM0_b ) P_12_LLRVT l=6e-08 w=8e-07 ad=8e-14 as=8e-14 \
 pd=1e-06 ps=1e-06 nrd=0 nrs=0 sa=9.4e-07 sb=2.5e-06 sca=35.6769 scb=0.0251795 \
 scc=0.00354845
mXI4\/XI10\/MPM21 ( N_XI4\/XI10\/NET7_XI4\/XI10\/MPM21_d \
 N_XI4\/XI10\/NET35_XI4\/XI10\/MPM21_g N_XI4\/XI10\/NET015_XI4\/XI10\/MPM21_s \
 N_VDD_XI4\/XI18\/MPM0_b ) P_12_LLRVT l=6e-08 w=8e-07 ad=8e-14 as=8e-14 \
 pd=1e-06 ps=1e-06 nrd=0 nrs=0 sa=2.24e-06 sb=1.2e-06 sca=33.7574 \
 scb=0.0231451 scc=0.00354069
mXI4\/XI10\/MPM33 ( N_XI4\/XI10\/NET7_XI4\/XI10\/MPM33_d \
 N_XI4\/NET16_XI4\/XI10\/MPM33_g N_XI4\/XI10\/NET031_XI4\/XI10\/MPM33_s \
 N_VDD_XI4\/XI18\/MPM0_b ) P_12_LLRVT l=6e-08 w=8e-07 ad=8e-14 as=8e-14 \
 pd=1e-06 ps=1e-06 nrd=0 nrs=0 sa=2.5e-06 sb=9.4e-07 sca=33.9234 scb=0.0232171 \
 scc=0.00354071
mXI4\/XI11\/MPM16 ( N_XI4\/XI11\/NET35_XI4\/XI11\/MPM16_d \
 N_XI4\/NET18_XI4\/XI11\/MPM16_g N_XI4\/XI11\/NET06_XI4\/XI11\/MPM16_s \
 N_VDD_XI4\/XI18\/MPM0_b ) P_12_LLRVT l=6e-08 w=8e-07 ad=8e-14 as=8e-14 \
 pd=1e-06 ps=1e-06 nrd=0 nrs=0 sa=6.8e-07 sb=2.76e-06 sca=37.8517 \
 scb=0.0289498 scc=0.00362077
mXI4\/XI11\/MPM30 ( N_XI4\/XI11\/NET35_XI4\/XI11\/MPM30_d \
 N_A\<3\>_XI4\/XI11\/MPM30_g N_XI4\/XI11\/NET033_XI4\/XI11\/MPM30_s \
 N_VDD_XI4\/XI18\/MPM0_b ) P_12_LLRVT l=6e-08 w=8e-07 ad=8e-14 as=8e-14 \
 pd=1e-06 ps=1e-06 nrd=0 nrs=0 sa=9.4e-07 sb=2.5e-06 sca=35.6769 scb=0.0251795 \
 scc=0.00354845
mXI4\/XI11\/MPM21 ( N_XI4\/XI11\/NET7_XI4\/XI11\/MPM21_d \
 N_XI4\/XI11\/NET35_XI4\/XI11\/MPM21_g N_XI4\/XI11\/NET015_XI4\/XI11\/MPM21_s \
 N_VDD_XI4\/XI18\/MPM0_b ) P_12_LLRVT l=6e-08 w=8e-07 ad=8e-14 as=8e-14 \
 pd=1e-06 ps=1e-06 nrd=0 nrs=0 sa=2.24e-06 sb=1.2e-06 sca=33.7574 \
 scb=0.0231451 scc=0.00354069
mXI4\/XI11\/MPM33 ( N_XI4\/XI11\/NET7_XI4\/XI11\/MPM33_d \
 N_XI4\/NET18_XI4\/XI11\/MPM33_g N_XI4\/XI11\/NET031_XI4\/XI11\/MPM33_s \
 N_VDD_XI4\/XI18\/MPM0_b ) P_12_LLRVT l=6e-08 w=8e-07 ad=8e-14 as=8e-14 \
 pd=1e-06 ps=1e-06 nrd=0 nrs=0 sa=2.5e-06 sb=9.4e-07 sca=33.9234 scb=0.0232171 \
 scc=0.00354071
mXI4\/XI12\/MPM16 ( N_XI4\/XI12\/NET35_XI4\/XI12\/MPM16_d \
 N_XI4\/NET20_XI4\/XI12\/MPM16_g N_XI4\/XI12\/NET06_XI4\/XI12\/MPM16_s \
 N_VDD_XI4\/XI18\/MPM0_b ) P_12_LLRVT l=6e-08 w=8e-07 ad=8e-14 as=8e-14 \
 pd=1e-06 ps=1e-06 nrd=0 nrs=0 sa=6.8e-07 sb=2.76e-06 sca=37.8517 \
 scb=0.0289498 scc=0.00362077
mXI4\/XI12\/MPM30 ( N_XI4\/XI12\/NET35_XI4\/XI12\/MPM30_d \
 N_A\<4\>_XI4\/XI12\/MPM30_g N_XI4\/XI12\/NET033_XI4\/XI12\/MPM30_s \
 N_VDD_XI4\/XI18\/MPM0_b ) P_12_LLRVT l=6e-08 w=8e-07 ad=8e-14 as=8e-14 \
 pd=1e-06 ps=1e-06 nrd=0 nrs=0 sa=9.4e-07 sb=2.5e-06 sca=35.6769 scb=0.0251795 \
 scc=0.00354845
mXI4\/XI12\/MPM21 ( N_XI4\/XI12\/NET7_XI4\/XI12\/MPM21_d \
 N_XI4\/XI12\/NET35_XI4\/XI12\/MPM21_g N_XI4\/XI12\/NET015_XI4\/XI12\/MPM21_s \
 N_VDD_XI4\/XI18\/MPM0_b ) P_12_LLRVT l=6e-08 w=8e-07 ad=8e-14 as=8e-14 \
 pd=1e-06 ps=1e-06 nrd=0 nrs=0 sa=2.24e-06 sb=1.2e-06 sca=33.7574 \
 scb=0.0231451 scc=0.00354069
mXI4\/XI12\/MPM33 ( N_XI4\/XI12\/NET7_XI4\/XI12\/MPM33_d \
 N_XI4\/NET20_XI4\/XI12\/MPM33_g N_XI4\/XI12\/NET031_XI4\/XI12\/MPM33_s \
 N_VDD_XI4\/XI18\/MPM0_b ) P_12_LLRVT l=6e-08 w=8e-07 ad=8e-14 as=8e-14 \
 pd=1e-06 ps=1e-06 nrd=0 nrs=0 sa=2.5e-06 sb=9.4e-07 sca=33.9234 scb=0.0232171 \
 scc=0.00354071
mXI4\/XI13\/MPM16 ( N_XI4\/XI13\/NET35_XI4\/XI13\/MPM16_d \
 N_XI4\/NET22_XI4\/XI13\/MPM16_g N_XI4\/XI13\/NET06_XI4\/XI13\/MPM16_s \
 N_VDD_XI4\/XI18\/MPM0_b ) P_12_LLRVT l=6e-08 w=8e-07 ad=8e-14 as=8e-14 \
 pd=1e-06 ps=1e-06 nrd=0 nrs=0 sa=6.8e-07 sb=2.76e-06 sca=37.8517 \
 scb=0.0289498 scc=0.00362077